2023-04-12T15:59:35,865  INFO Gbl:64 JVM: 17.0.6; Oracle Corporation; mixed mode, sharing; 64-bit
2023-04-12T15:59:35,866  INFO Gbl:68 OS: Windows 11; 10.0; amd64
2023-04-12T15:59:35,866  INFO Gbl:71 CPU cores: 16
2023-04-12T15:59:35,871  INFO Gbl:72 max. Memory: 1024.0MB (1073741824B)
2023-04-12T15:59:35,873  INFO Gbl:110 MATSim-Build: rf8f3ac8cbcd3252613468cd476941dd630200097 (2023-04-03 01:46:12)
2023-04-12T15:59:35,877  INFO ControlerListenerManagerImpl:108 calling notifyStartup on org.matsim.core.controler.ControlerDefaultsModule$1
2023-04-12T15:59:35,879  INFO MemoryObserver:42 used RAM: 29 MB  free: 44 MB  total: 74 MB
2023-04-12T15:59:35,948  INFO ControlerListenerManagerImpl:108 calling notifyStartup on org.matsim.guice.DependencyGraphControlerListener
2023-04-12T15:59:36,037  INFO ControlerListenerManagerImpl:108 calling notifyStartup on org.matsim.counts.CountsControlerListener
2023-04-12T15:59:36,037  INFO ControlerListenerManagerImpl:108 calling notifyStartup on org.matsim.analysis.ModeStatsControlerListener
2023-04-12T15:59:36,037  INFO ControlerListenerManagerImpl:108 calling notifyStartup on org.matsim.analysis.ScoreStatsControlerListener
2023-04-12T15:59:36,038  INFO ControlerListenerManagerImpl:111 all ControlerStartupListeners called.
2023-04-12T15:59:36,038  INFO ControlerUtils:80 config dump before iterations start
2023-04-12T15:59:36,054  INFO ControlerUtils:84 

<?xml version="1.0" encoding="UTF-8"?>
<!DOCTYPE config SYSTEM "http://www.matsim.org/files/dtd/config_v2.dtd">
<config>
	<module name="JDEQSim" >
		<param name="carSize" value="7.5" />
		<param name="endTime" value="undefined" />
		<param name="flowCapacityFactor" value="1.0" />
		<param name="gapTravelSpeed" value="15.0" />
		<param name="minimumInFlowCapacity" value="1800.0" />
		<param name="squeezeTime" value="1800.0" />
		<param name="storageCapacityFactor" value="1.0" />
	</module>
	<module name="ReplanningAnnealer" >
		<!-- Activate the scaling of replanning modules using an annealing approach rather than fixed rates. -->
		<param name="activateAnnealingModule" value="false" />
	</module>
	<module name="TimeAllocationMutator" >
		<!-- Default:true; Defines whether time mutation changes an activity's duration. -->
		<param name="mutationAffectsDuration" value="true" />
		<!-- Default:1800.0; Defines how many seconds a time mutation can maximally shift a time. -->
		<param name="mutationRange" value="1800.0" />
	</module>
	<module name="changeMode" >
		<!-- Defines whether car availability is considered be considered or not. An agent has no car only if it has no license, or never access to a car. Default: true -->
		<param name="ignoreCarAvailability" value="true" />
		<!-- Defines the mode switch behavior. Possible values [fromAllModesToSpecifiedModes, fromSpecifiedModesToSpecifiedModes] Default: fromSpecifiedModesToSpecifiedModes. -->
		<param name="modeSwitchBehavior" value="fromSpecifiedModesToSpecifiedModes" />
		<!-- Defines all the modes available, including chain-based modes, seperated by commas -->
		<param name="modes" value="car,pt" />
	</module>
	<module name="controler" >
		<!-- Defines what should be done with the ITERS directory when a simulation finished successfully -->
		<param name="cleanItersAtEnd" value="keep" />
		<!-- Compression algorithm to use when writing out data to files. Possible values: [none, gzip, lz4, zst] -->
		<param name="compressionType" value="gzip" />
		<!-- Sets whether graphs showing some analyses should automatically be generated during the simulation. The generation of graphs usually takes a small amount of time that does not have any weight in big simulations, but add a significant overhead in smaller runs or in test cases where the graphical output is not even requested. -->
		<param name="createGraphs" value="true" />
		<!-- Defines when the scoring functions for the population are created. Default=IterationStarts. Possible values: [IterationStarts, BeforeMobsim] -->
		<param name="createScoringFunctionType" value="IterationStarts" />
		<!-- true if at the end of a run, plans, network, config etc should be dumped to a file -->
		<param name="dumpDataAtEnd" value="true" />
		<!-- Default=false. If enabled, the router takes travel times needed for turning moves into account. Cannot be used if the (Fast)AStarLandmarks routing or TravelTimeCalculator.separateModes is enabled. -->
		<param name="enableLinkToLinkRouting" value="false" />
		<!-- Default=xml; Specifies the file format for writing events. Currently supported: [xml, pb, json]
		Multiple values can be specified separated by commas (','). -->
		<param name="eventsFileFormat" value="xml" />
		<!-- Default=0. First Iteration of a simulation. -->
		<param name="firstIteration" value="0" />
		<!-- Default=1000. Last Iteration of a simulation. -->
		<param name="lastIteration" value="10" />
		<!-- Defines which mobility simulation will be used. Currently supported: qsim JDEQSim hermes 
		Depending on the chosen mobsim, you'll have to add additional config modules to configure the corresponding mobsim.
		For 'qsim', add a module 'qsim' to the config. -->
		<param name="mobsim" value="qsim" />
		<param name="outputDirectory" value="./output" />
		<!-- Possible values: failIfDirectoryExists,overwriteExistingFiles,deleteDirectoryIfExists -->
		<param name="overwriteFiles" value="deleteDirectoryIfExists" />
		<!-- The type of routing (least cost path) algorithm used, may have the values: [Dijkstra, AStarLandmarks, FastDijkstra, FastAStarLandmarks, SpeedyALT] -->
		<param name="routingAlgorithmType" value="AStarLandmarks" />
		<!-- An identifier for the current run which is used as prefix for output files and mentioned in output xml files etc. -->
		<param name="runId" value="null" />
		<!-- Comma-separated list of visualizer output file formats. `transims' and `otfvis'. -->
		<param name="snapshotFormat" value="" />
		<!-- iterationNumber % writeEventsInterval == 0 defines in which iterations events are written to a file. `0' disables events writing completely. -->
		<param name="writeEventsInterval" value="50" />
		<!-- iterationNumber % writePlansInterval == 0 defines (hopefully) in which iterations plans are written to a file. `0' disables plans writing completely.  Some plans in early iterations are always written -->
		<param name="writePlansInterval" value="50" />
		<!-- iterationNumber % writeSnapshotsInterval == 0 defines in which iterations snapshots are written to a file. `0' disables snapshots writing completely -->
		<param name="writeSnapshotsInterval" value="1" />
		<!-- iterationNumber % writeEventsInterval == 0 defines in which iterations trips CSV are written to a file. `0' disables trips writing completely. -->
		<param name="writeTripsInterval" value="50" />
	</module>
	<module name="counts" >
		<!-- Transport modes that will be respected for the counts comparison. 'car' is default, which includes also bussed from the pt simulation module. Use this parameter in combination with 'filterModes' = true! -->
		<param name="analyzedModes" value="car" />
		<!-- Specifies over how many iterations the link volumes should be averaged that are used for the counts comparison. Use 1 or 0 to only use the link volumes of a single iteration. This values cannot be larger than the value specified for writeCountsInterval -->
		<param name="averageCountsOverIterations" value="5" />
		<!-- factor by which to re-scale the simulated values.  necessary when simulation runs with something different from 100%.  needs to be adapted manually -->
		<param name="countsScaleFactor" value="1.0" />
		<!-- distance to distanceFilterCenterNode to include counting stations. The unit of distance is the Euclidean distance implied by the coordinate system -->
		<param name="distanceFilter" value="null" />
		<!-- node id for center node of distance filter -->
		<param name="distanceFilterCenterNode" value="null" />
		<!-- If true, link counts from legs performed on modes not included in the 'analyzedModes' parameter are ignored. -->
		<param name="filterModes" value="false" />
		<!-- The Coordinates Reference System in which the coordinates are expressed in the input file. At import, the coordinates will be converted to the coordinate system defined in "global", and willbe converted back at export. If not specified, no conversion happens. -->
		<param name="inputCRS" value="null" />
		<!-- input file name to counts package -->
		<param name="inputCountsFile" value="null" />
		<!-- possible values: `html', `txt', `all' -->
		<param name="outputformat" value="txt" />
		<!-- Specifies how often the counts comparison should be calculated and written. -->
		<param name="writeCountsInterval" value="10" />
	</module>
	<module name="facilities" >
		<!-- This defines how facilities should be created. Possible values: none fromFile setInScenario onePerActivityLinkInPlansFile onePerActivityLinkInPlansFileExceptWhenCoordinatesAreGiven onePerActivityLocationInPlansFile  -->
		<param name="facilitiesSource" value="none" />
		<!-- A prefix to be used for auto-generated IDs. -->
		<param name="idPrefix" value="f_auto_" />
		<!-- The Coordinates Reference System in which the coordinates are expressed in the input file. At import, the coordinates will be converted to the coordinate system defined in "global", and willbe converted back at export. If not specified, no conversion happens. -->
		<param name="inputCRS" value="null" />
		<param name="inputFacilitiesFile" value="null" />
		<param name="inputFacilityAttributesFile" value="null" />
		<param name="insistingOnUsingDeprecatedFacilitiesAttributeFile" value="false" />
	</module>
	<module name="global" >
		<param name="coordinateSystem" value="Atlantis" />
		<param name="defaultDelimiter" value=";" />
		<param name="insistingOnDeprecatedConfigVersion" value="true" />
		<!-- "global" number of threads.  This number is used, e.g., for replanning, but NOT in QSim.  This can typically be set to as many cores as you have available, or possibly even slightly more. -->
		<param name="numberOfThreads" value="2" />
		<param name="randomSeed" value="4711" />
	</module>
	<module name="hermes" >
		<!-- Simulation End Time -->
		<param name="endTime" value="30:00:00" />
		<param name="flowCapacityFactor" value="1.0" />
		<param name="mainMode" value="car" />
		<param name="storageCapacityFactor" value="1.0" />
		<!-- time in seconds.  Time after which the frontmost vehicle on a link is called `stuck' if it does not move. Set to Integer.MAX_VALUE to disable this behavior -->
		<param name="stuckTime" value="10" />
		<!-- treats PT as deterministic. PT vehicles will run with a steady speed. Should be used with separate network layers for PT and other network modes. -->
		<param name="useDeterministicPt" value="false" />
	</module>
	<module name="households" >
		<param name="inputFile" value="null" />
		<param name="inputHouseholdAttributesFile" value="null" />
		<param name="insistingOnUsingDeprecatedHouseholdsAttributeFile" value="false" />
	</module>
	<module name="linkStats" >
		<!-- Specifies over how many iterations the link volumes should be averaged that are used for the link statistics. Use 1 or 0 to only use the link volumes of a single iteration. This values cannot be larger than the value specified for writeLinkStatsInterval -->
		<param name="averageLinkStatsOverIterations" value="5" />
		<!-- Specifies how often the link stats should be calculated and written. Use 0 to disable the generation of link stats. -->
		<param name="writeLinkStatsInterval" value="50" />
	</module>
	<module name="network" >
		<!-- The Coordinates Reference System in which the coordinates are expressed in the input file. At import, the coordinates will be converted to the coordinate system defined in "global", and willbe converted back at export. If not specified, no conversion happens. -->
		<param name="inputCRS" value="null" />
		<param name="inputChangeEventsFile" value="null" />
		<param name="inputNetworkFile" value="network.xml" />
		<param name="laneDefinitionsFile" value="null" />
		<param name="timeVariantNetwork" value="false" />
	</module>
	<module name="parallelEventHandling" >
		<!-- Estimated number of events during mobsim run. An optional optimization hint for the framework. -->
		<param name="estimatedNumberOfEvents" value="null" />
		<!-- Size of the events Queue. Increase for very large scenarios -->
		<param name="eventsQueueSize" value="131072" />
		<!-- Number of threads for parallel events handler. _null_ means the framework decides by itself. 0 is currently not possible. -->
		<param name="numberOfThreads" value="null" />
		<!-- If enabled, each event handler is assigned to its own thread. Note that enabling this feature disabled the numberOfThreads option! This feature is still experimental! -->
		<param name="oneThreadPerHandler" value="false" />
		<!-- If enabled, it is ensured that all events that are created during a time step of the mobility simulation are processed before the next time step is simulated. E.g. neccessary when within-day replanning is used. -->
		<param name="synchronizeOnSimSteps" value="true" />
	</module>
	<module name="planCalcScore" >
		<!-- logit model scale parameter. default: 1.  Has name and default value for historical reasons (see Bryan Raney's phd thesis). -->
		<param name="BrainExpBeta" value="2.0" />
		<param name="PathSizeLogitBeta" value="1.0" />
		<!-- fraction of iterations at which MSA score averaging is started. The matsim theory department suggests to use this together with switching off choice set innovation (where a similar switch exists), but it has not been tested yet. -->
		<param name="fractionOfIterationsToStartScoreMSA" value="null" />
		<!-- new_score = (1-learningRate)*old_score + learningRate * score_from_mobsim.  learning rates close to zero emulate score averaging, but slow down initial convergence -->
		<param name="learningRate" value="1.0" />
		<!-- There used to be a plateau between duration=0 and duration=zeroUtilityDuration. This caused durations to evolve to zero once they were below zeroUtilityDuration, causing problems.  Only use this switch if you need to be backwards compatible with some old results.  (changed nov'13) -->
		<param name="usingOldScoringBelowZeroUtilityDuration" value="false" />
		<!-- write a plans file in each iteration directory which contains what each agent actually did, and the score it received. -->
		<param name="writeExperiencedPlans" value="false" />
		<parameterset type="scoringParameters" >
			<param name="earlyDeparture" value="-0.0" />
			<param name="lateArrival" value="-18.0" />
			<param name="marginalUtilityOfMoney" value="1.0" />
			<param name="performing" value="6.0" />
			<param name="subpopulation" value="null" />
			<param name="utilityOfLineSwitch" value="-1.0" />
			<param name="waiting" value="-0.0" />
			<param name="waitingPt" value="-6.0" />
			<parameterset type="activityParams" >
				<param name="activityType" value="dummy" />
				<param name="closingTime" value="undefined" />
				<param name="earliestEndTime" value="undefined" />
				<param name="latestStartTime" value="undefined" />
				<param name="minimalDuration" value="undefined" />
				<param name="openingTime" value="undefined" />
				<param name="priority" value="1.0" />
				<param name="scoringThisActivityAtAll" value="true" />
				<!-- typical duration of activity.  needs to be defined and non-zero.  in sec. -->
				<param name="typicalDuration" value="02:00:00" />
				<!-- method to compute score at typical duration.  Options: | uniform | relative | Use uniform for backwards compatibility (all activities same score; higher proba to drop long acts). -->
				<param name="typicalDurationScoreComputation" value="relative" />
			</parameterset>
			<parameterset type="activityParams" >
				<param name="activityType" value="car interaction" />
				<param name="closingTime" value="undefined" />
				<param name="earliestEndTime" value="undefined" />
				<param name="latestStartTime" value="undefined" />
				<param name="minimalDuration" value="undefined" />
				<param name="openingTime" value="undefined" />
				<param name="priority" value="1.0" />
				<param name="scoringThisActivityAtAll" value="false" />
				<param name="typicalDuration" value="undefined" />
				<param name="typicalDurationScoreComputation" value="relative" />
			</parameterset>
			<parameterset type="activityParams" >
				<param name="activityType" value="pt interaction" />
				<param name="closingTime" value="undefined" />
				<param name="earliestEndTime" value="undefined" />
				<param name="latestStartTime" value="undefined" />
				<param name="minimalDuration" value="undefined" />
				<param name="openingTime" value="undefined" />
				<param name="priority" value="1.0" />
				<param name="scoringThisActivityAtAll" value="false" />
				<param name="typicalDuration" value="undefined" />
				<param name="typicalDurationScoreComputation" value="relative" />
			</parameterset>
			<parameterset type="activityParams" >
				<param name="activityType" value="bike interaction" />
				<param name="closingTime" value="undefined" />
				<param name="earliestEndTime" value="undefined" />
				<param name="latestStartTime" value="undefined" />
				<param name="minimalDuration" value="undefined" />
				<param name="openingTime" value="undefined" />
				<param name="priority" value="1.0" />
				<param name="scoringThisActivityAtAll" value="false" />
				<param name="typicalDuration" value="undefined" />
				<param name="typicalDurationScoreComputation" value="relative" />
			</parameterset>
			<parameterset type="activityParams" >
				<param name="activityType" value="drt interaction" />
				<param name="closingTime" value="undefined" />
				<param name="earliestEndTime" value="undefined" />
				<param name="latestStartTime" value="undefined" />
				<param name="minimalDuration" value="undefined" />
				<param name="openingTime" value="undefined" />
				<param name="priority" value="1.0" />
				<param name="scoringThisActivityAtAll" value="false" />
				<param name="typicalDuration" value="undefined" />
				<param name="typicalDurationScoreComputation" value="relative" />
			</parameterset>
			<parameterset type="activityParams" >
				<param name="activityType" value="taxi interaction" />
				<param name="closingTime" value="undefined" />
				<param name="earliestEndTime" value="undefined" />
				<param name="latestStartTime" value="undefined" />
				<param name="minimalDuration" value="undefined" />
				<param name="openingTime" value="undefined" />
				<param name="priority" value="1.0" />
				<param name="scoringThisActivityAtAll" value="false" />
				<param name="typicalDuration" value="undefined" />
				<param name="typicalDurationScoreComputation" value="relative" />
			</parameterset>
			<parameterset type="activityParams" >
				<param name="activityType" value="other interaction" />
				<param name="closingTime" value="undefined" />
				<param name="earliestEndTime" value="undefined" />
				<param name="latestStartTime" value="undefined" />
				<param name="minimalDuration" value="undefined" />
				<param name="openingTime" value="undefined" />
				<param name="priority" value="1.0" />
				<param name="scoringThisActivityAtAll" value="false" />
				<param name="typicalDuration" value="undefined" />
				<param name="typicalDurationScoreComputation" value="relative" />
			</parameterset>
			<parameterset type="activityParams" >
				<param name="activityType" value="walk interaction" />
				<param name="closingTime" value="undefined" />
				<param name="earliestEndTime" value="undefined" />
				<param name="latestStartTime" value="undefined" />
				<param name="minimalDuration" value="undefined" />
				<param name="openingTime" value="undefined" />
				<param name="priority" value="1.0" />
				<param name="scoringThisActivityAtAll" value="false" />
				<param name="typicalDuration" value="undefined" />
				<param name="typicalDurationScoreComputation" value="relative" />
			</parameterset>
			<parameterset type="activityParams" >
				<param name="activityType" value="h" />
				<param name="closingTime" value="undefined" />
				<param name="earliestEndTime" value="undefined" />
				<param name="latestStartTime" value="undefined" />
				<param name="minimalDuration" value="undefined" />
				<param name="openingTime" value="undefined" />
				<param name="priority" value="1.0" />
				<param name="scoringThisActivityAtAll" value="true" />
				<param name="typicalDuration" value="12:00:00" />
				<param name="typicalDurationScoreComputation" value="relative" />
			</parameterset>
			<parameterset type="activityParams" >
				<param name="activityType" value="w" />
				<param name="closingTime" value="18:00:00" />
				<param name="earliestEndTime" value="undefined" />
				<param name="latestStartTime" value="09:00:00" />
				<param name="minimalDuration" value="undefined" />
				<param name="openingTime" value="07:00:00" />
				<param name="priority" value="1.0" />
				<param name="scoringThisActivityAtAll" value="true" />
				<param name="typicalDuration" value="08:00:00" />
				<param name="typicalDurationScoreComputation" value="relative" />
			</parameterset>
			<parameterset type="activityParams" >
				<param name="activityType" value="ride interaction" />
				<param name="closingTime" value="undefined" />
				<param name="earliestEndTime" value="undefined" />
				<param name="latestStartTime" value="undefined" />
				<param name="minimalDuration" value="undefined" />
				<param name="openingTime" value="undefined" />
				<param name="priority" value="1.0" />
				<param name="scoringThisActivityAtAll" value="false" />
				<param name="typicalDuration" value="undefined" />
				<param name="typicalDurationScoreComputation" value="relative" />
			</parameterset>
			<parameterset type="modeParams" >
				<!-- [utils] alternative-specific constant.  Normally per trip, but that is probably buggy for multi-leg trips. -->
				<param name="constant" value="0.0" />
				<!-- [unit_of_money/day] Fixed cost of mode, per day. -->
				<param name="dailyMonetaryConstant" value="0.0" />
				<!-- [utils] daily utility constant. default=0 to be backwards compatible -->
				<param name="dailyUtilityConstant" value="0.0" />
				<!-- [utils/m] utility of traveling (e.g. walking or driving) per m, normally negative.  this is on top of the time (dis)utility. -->
				<param name="marginalUtilityOfDistance_util_m" value="0.0" />
				<!-- [utils/hr] additional marginal utility of traveling.  normally negative.  this comes on top of the opportunity cost of time -->
				<param name="marginalUtilityOfTraveling_util_hr" value="-6.0" />
				<param name="mode" value="car" />
				<!-- [unit_of_money/m] conversion of distance into money. Normally negative. -->
				<param name="monetaryDistanceRate" value="0.0" />
			</parameterset>
			<parameterset type="modeParams" >
				<param name="constant" value="0.0" />
				<param name="dailyMonetaryConstant" value="0.0" />
				<param name="dailyUtilityConstant" value="0.0" />
				<param name="marginalUtilityOfDistance_util_m" value="0.0" />
				<param name="marginalUtilityOfTraveling_util_hr" value="-6.0" />
				<param name="mode" value="pt" />
				<param name="monetaryDistanceRate" value="0.0" />
			</parameterset>
			<parameterset type="modeParams" >
				<param name="constant" value="0.0" />
				<param name="dailyMonetaryConstant" value="0.0" />
				<param name="dailyUtilityConstant" value="0.0" />
				<param name="marginalUtilityOfDistance_util_m" value="0.0" />
				<param name="marginalUtilityOfTraveling_util_hr" value="-6.0" />
				<param name="mode" value="walk" />
				<param name="monetaryDistanceRate" value="0.0" />
			</parameterset>
			<parameterset type="modeParams" >
				<param name="constant" value="0.0" />
				<param name="dailyMonetaryConstant" value="0.0" />
				<param name="dailyUtilityConstant" value="0.0" />
				<param name="marginalUtilityOfDistance_util_m" value="0.0" />
				<param name="marginalUtilityOfTraveling_util_hr" value="-6.0" />
				<param name="mode" value="bike" />
				<param name="monetaryDistanceRate" value="0.0" />
			</parameterset>
			<parameterset type="modeParams" >
				<param name="constant" value="0.0" />
				<param name="dailyMonetaryConstant" value="0.0" />
				<param name="dailyUtilityConstant" value="0.0" />
				<param name="marginalUtilityOfDistance_util_m" value="0.0" />
				<param name="marginalUtilityOfTraveling_util_hr" value="-6.0" />
				<param name="mode" value="ride" />
				<param name="monetaryDistanceRate" value="0.0" />
			</parameterset>
			<parameterset type="modeParams" >
				<param name="constant" value="0.0" />
				<param name="dailyMonetaryConstant" value="0.0" />
				<param name="dailyUtilityConstant" value="0.0" />
				<param name="marginalUtilityOfDistance_util_m" value="0.0" />
				<param name="marginalUtilityOfTraveling_util_hr" value="-6.0" />
				<param name="mode" value="other" />
				<param name="monetaryDistanceRate" value="0.0" />
			</parameterset>
		</parameterset>
	</module>
	<module name="plans" >
		<!-- String: minOfDurationAndEndTime tryEndTimeThenDuration endTimeOnly. Anything besides minOfDurationAndEndTime will internally use a different (simpler) version of the TimeAllocationMutator. -->
		<param name="activityDurationInterpretation" value="tryEndTimeThenDuration" />
		<!-- Possible values: reject,useMainModeIdentifier -->
		<param name="handlingOfPlansWithoutRoutingMode" value="reject" />
		<!-- The Coordinates Reference System in which the coordinates are expressed in the input file. At import, the coordinates will be converted to the coordinate system defined in "global", and willbe converted back at export. If not specified, no conversion happens. -->
		<param name="inputCRS" value="null" />
		<param name="inputPersonAttributesFile" value="null" />
		<param name="inputPlansFile" value="plans100.xml" />
		<param name="insistingOnUsingDeprecatedPersonAttributeFile" value="false" />
		<!-- Defines how routes are stored in memory. Currently supported: LinkNetworkRoute, MediumCompressedNetworkRoute, HeavyCompressedNetworkRoute. -->
		<param name="networkRouteType" value="LinkNetworkRoute" />
		<!-- (not tested) will remove plan attributes that are presumably not used, such as activityStartTime. default=false. Use with Caution! -->
		<param name="removingUnnecessaryPlanAttributes" value="false" />
		<!-- Defines how departure times are interpreted in rerouting applications. If set to 'ignoreDelays', the departure time of a trip when routing along a plan will always be the nominal (plan-based) activity end time. If set to 'shiftActivityEndTimes', routing along a plan will accumulate travel times and shift activity end times if necessary -->
		<param name="tripDurationHandling" value="ignoreDelays" />
	</module>
	<module name="planscalcroute" >
		<!-- Defines how access and egress to main mode is simulated. Either of [none, accessEgressModeToLink, walkConstantTimeToLink, accessEgressModeToLinkPlusTimeConstant], Current default=none which means no access or egress trips are simulated. -->
		<param name="accessEgressType" value="none" />
		<!-- Some typical teleportation routing params are set by default, such as for walk and bike.  Setting this switch to "true" will clear them.  Note that this will also clear settings for helper modes such as for non_network_walk -->
		<param name="clearDefaultTeleportedModeParams" value="false" />
		<!-- All the modes for which the router is supposed to generate network routes (like car) -->
		<param name="networkModes" value="car" />
		<!-- strength of the randomness for the utility of money in routing under toll.  Leads to Pareto-optimal route with randomly drawn money-vs-other-attributes tradeoff. Technically the width parameter of a log-normal distribution. 3.0 seems to be a good value.  -->
		<param name="routingRandomness" value="3.0" />
		<parameterset type="teleportedModeParameters" >
			<param name="beelineDistanceFactor" value="1.3" />
			<param name="mode" value="bike" />
			<!-- Free-speed factor for a teleported mode. Travel time = teleportedModeFreespeedFactor * <freespeed car travel time>. Insert a line like this for every such mode. Please do not set teleportedModeFreespeedFactor as well as teleportedModeSpeed for the same mode, but if you do, +teleportedModeFreespeedFactor wins over teleportedModeSpeed. -->
			<param name="teleportedModeFreespeedFactor" value="null" />
			<!-- Speed for a teleported mode. Travel time = (<beeline distance> * beelineDistanceFactor) / teleportedModeSpeed. Insert a line like this for every such mode. -->
			<param name="teleportedModeSpeed" value="4.166666666666667" />
		</parameterset>
		<parameterset type="teleportedModeParameters" >
			<param name="beelineDistanceFactor" value="1.3" />
			<param name="mode" value="walk" />
			<param name="teleportedModeFreespeedFactor" value="null" />
			<param name="teleportedModeSpeed" value="0.8333333333333333" />
		</parameterset>
		<parameterset type="teleportedModeParameters" >
			<param name="beelineDistanceFactor" value="1.3" />
			<param name="mode" value="non_network_walk" />
			<param name="teleportedModeFreespeedFactor" value="null" />
			<param name="teleportedModeSpeed" value="0.8333333333333333" />
		</parameterset>
		<parameterset type="teleportedModeParameters" >
			<param name="beelineDistanceFactor" value="1.3" />
			<param name="mode" value="ride" />
			<param name="teleportedModeFreespeedFactor" value="1.0" />
			<param name="teleportedModeSpeed" value="null" />
		</parameterset>
		<parameterset type="teleportedModeParameters" >
			<param name="beelineDistanceFactor" value="1.3" />
			<param name="mode" value="pt" />
			<param name="teleportedModeFreespeedFactor" value="2.0" />
			<param name="teleportedModeSpeed" value="null" />
		</parameterset>
	</module>
	<module name="ptCounts" >
		<!-- factor by which to re-scale the simulated values.  necessary when simulation runs with something different from 100%.  needs to be adapted manually -->
		<param name="countsScaleFactor" value="1.0" />
		<!-- distance to distanceFilterCenterNode to include counting stations. The unit of distance is the Euclidean distance implied by the coordinate system -->
		<param name="distanceFilter" value="null" />
		<!-- node id for center node of distance filter -->
		<param name="distanceFilterCenterNode" value="null" />
		<!-- input file containing the alighting (getting off) counts for pt -->
		<param name="inputAlightCountsFile" value="null" />
		<!-- input file containing the boarding (getting on) counts for pt -->
		<param name="inputBoardCountsFile" value="null" />
		<!-- input file containing the occupancy counts for pt -->
		<param name="inputOccupancyCountsFile" value="null" />
		<!-- possible values: `html', `txt', `all' -->
		<param name="outputformat" value="null" />
		<!-- every how many iterations (starting with 0) counts comparisons are generated -->
		<param name="ptCountsInterval" value="10" />
	</module>
	<module name="qsim" >
		<param name="endTime" value="00:00:00" />
		<!-- If set to withLinkAttributes snapshots will only be generated for links which include generateSnapshotForLink as attribute key. Default is no filtering. -->
		<param name="filterSnapshots" value="no" />
		<param name="flowCapacityFactor" value="1.0" />
		<!-- decides if waiting vehicles enter the network after or before the already driving vehicles were moved. Default: false -->
		<param name="insertingWaitingVehiclesBeforeDrivingVehicles" value="true" />
		<!-- If link dynamics is set as SeepageQ, set to false if all seep modes should perform seepage. Default is true (better option). -->
		<param name="isRestrictingSeepage" value="true" />
		<!-- If link dynamics is set as SeepageQ, set to true if seep mode do not consumes any space on the link. Default is false. -->
		<param name="isSeepModeStorageFree" value="false" />
		<!-- default: FIFO; options: FIFO PassingQ SeepageQ -->
		<param name="linkDynamics" value="FIFO" />
		<!-- The (initial) width of the links of the network. Use positive floating point values. This is used only for visualisation. -->
		<param name="linkWidth" value="30.0" />
		<!-- [comma-separated list] Defines which modes are congested modes. Technically, these are the modes that the departure handler of the netsimengine handles.  Effective cell size, effective lane width, flow capacity factor, and storage capacity factor need to be set with diligence.  Need to be vehicular modes to make sense. -->
		<param name="mainMode" value="car" />
		<!-- Shortens a link in the visualization, i.e. its start and end point are moved into towards the center. Does not affect traffic flow.  -->
		<param name="nodeOffset" value="0.0" />
		<!-- Number of threads used for the QSim.  Note that this setting is independent from the "global" threads setting.  In contrast to earlier versions, the non-parallel special version is no longer there. -->
		<param name="numberOfThreads" value="1" />
		<!-- Boolean. `true': stuck vehicles are removed, aborting the plan; `false': stuck vehicles are forced into the next link. `false' is probably the better choice. -->
		<param name="removeStuckVehicles" value="false" />
		<!-- If link dynamics is set as SeepageQ, set a seep mode. Default is bike. -->
		<param name="seepMode" value="bike" />
		<!-- Possible values: minOfEndtimeAndMobsimFinished,onlyUseEndtime -->
		<param name="simEndtimeInterpretation" value="null" />
		<!-- Options: maxOfStarttimeAndEarliestActivityEnd onlyUseStarttime  -->
		<param name="simStarttimeInterpretation" value="maxOfStarttimeAndEarliestActivityEnd" />
		<!-- snapshotStyle. One of: equiDist queue withHoles withHolesAndShowHoles kinematicWaves  -->
		<param name="snapshotStyle" value="queue" />
		<param name="snapshotperiod" value="00:00:00" />
		<param name="startTime" value="00:00:00" />
		<param name="storageCapacityFactor" value="1.0" />
		<!-- time in seconds.  Time after which the frontmost vehicle on a link is called `stuck' if it does not move. -->
		<param name="stuckTime" value="10.0" />
		<param name="timeStepSize" value="00:00:01" />
		<!-- options: queue withHoles kinematicWaves  -->
		<param name="trafficDynamics" value="queue" />
		<!-- Set this parameter to true if lanes should be used, false if not. -->
		<param name="useLanes" value="false" />
		<!-- If a route does not reference a vehicle, agents will use the vehicle with the same id as their own. -->
		<param name="usePersonIdForMissingVehicleId" value="true" />
		<!-- If false, the qsim accumulates fractional flows up to one flow unit in every time step.  If true, flows are updated only if an agent wants to enter the link or an agent is added to buffer. Default is true. -->
		<param name="usingFastCapacityUpdate" value="true" />
		<!-- Defines what happens if an agent wants to depart, but the specified vehicle is not available. One of: teleport wait exception  -->
		<param name="vehicleBehavior" value="teleport" />
		<!-- If vehicles should all be the same default vehicle, or come from the vehicles file, or something else.  Possible values:  defaultVehicle modeVehicleTypesFromVehiclesData fromVehiclesData -->
		<param name="vehiclesSource" value="defaultVehicle" />
	</module>
	<module name="strategy" >
		<!-- the external executable will be called with a config file as argument.  This is the pathname to a possible skeleton config, to which additional information will be added.  Can be null. -->
		<param name="ExternalExeConfigTemplate" value="null" />
		<!-- time out value (in seconds) after which matsim will consider the external strategy as failed -->
		<param name="ExternalExeTimeOut" value="3600" />
		<!-- root directory for temporary files generated by the external executable. Provided as a service; I don't think this is used by MATSim. -->
		<param name="ExternalExeTmpFileRootDir" value="null" />
		<!-- fraction of iterations where innovative strategies are switched off.  Something like 0.8 should be good.  E.g. if you run from iteration 400 to iteration 500, innovation is switched off at iteration 480 -->
		<param name="fractionOfIterationsToDisableInnovation" value="Infinity" />
		<!-- maximum number of plans per agent.  ``0'' means ``infinity''.  Currently (2010), ``5'' is a good number -->
		<param name="maxAgentPlanMemorySize" value="5" />
		<!-- strategyName of PlanSelector for plans removal.  Possible defaults: WorstPlanSelector SelectRandom SelectExpBetaForRemoval ChangeExpBetaForRemoval PathSizeLogitSelectorForRemoval . The current default, WorstPlanSelector is not a good choice from a discrete choice theoretical perspective. Alternatives, however, have not been systematically tested. kai, feb'12 -->
		<param name="planSelectorForRemoval" value="WorstPlanSelector" />
		<parameterset type="strategysettings" >
			<!-- iteration after which strategy will be disabled.  most useful for ``innovative'' strategies (new routes, new times, ...). Normally, better use fractionOfIterationsToDisableInnovation -->
			<param name="disableAfterIteration" value="-1" />
			<!-- path to external executable (if applicable) -->
			<param name="executionPath" value="null" />
			<!-- strategyName of strategy.  Possible default names: SelectRandom BestScore KeepLastSelected ChangeExpBeta SelectExpBeta SelectPathSizeLogit      (selectors), ReRouteTimeAllocationMutatorTimeAllocationMutator_ReRouteChangeSingleTripModeChangeTripModeSubtourModeChoice (innovative strategies). -->
			<param name="strategyName" value="BestScore" />
			<!-- subpopulation to which the strategy applies. "null" refers to the default population, that is, the set of persons for which no explicit subpopulation is defined (ie no subpopulation attribute) -->
			<param name="subpopulation" value="null" />
			<!-- weight of a strategy: for each agent, a strategy will be selected with a probability proportional to its weight -->
			<param name="weight" value="0.9" />
		</parameterset>
		<parameterset type="strategysettings" >
			<param name="disableAfterIteration" value="-1" />
			<param name="executionPath" value="null" />
			<param name="strategyName" value="ReRoute" />
			<param name="subpopulation" value="null" />
			<param name="weight" value="0.1" />
		</parameterset>
	</module>
	<module name="subtourModeChoice" >
		<!-- Only for backwards compatibility.  Defines if only trips from modes list should change mode, or all trips.  Options: fromAllModesToSpecifiedModes fromSpecifiedModesToSpecifiedModes betweenAllAndFewerConstraints  -->
		<param name="behavior" value="fromSpecifiedModesToSpecifiedModes" />
		<!-- Defines the chain-based modes, seperated by commas -->
		<param name="chainBasedModes" value="car,bike" />
		<!-- Defines whether car availability must be considered or not. A agent has no car only if it has no license, or never access to a car -->
		<param name="considerCarAvailability" value="false" />
		<!-- If greater than 0, subtours will also consider coordinates to be at the same location when smaller than set distance. -->
		<param name="coordDistance" value="0.0" />
		<!-- Defines all the modes available, including chain-based modes, seperated by commas -->
		<param name="modes" value="car,pt,bike,walk" />
		<!-- Defines the probability of changing a single trip for a unchained mode instead of subtour. -->
		<param name="probaForRandomSingleTripMode" value="0.0" />
	</module>
	<module name="transit" >
		<!-- The Coordinates Reference System in which the coordinates are expressed in the input file. At import, the coordinates will be converted to the coordinate system defined in "global", and willbe converted back at export. If not specified, no conversion happens. -->
		<param name="inputScheduleCRS" value="null" />
		<param name="insistingOnUsingDeprecatedAttributeFiles" value="false" />
		<!-- The type of transit routing algorithm used, may have the values: [DijkstraBased, SwissRailRaptor] -->
		<param name="routingAlgorithmType" value="SwissRailRaptor" />
		<!-- Optional input file containing additional attributes for transit lines, stored as ObjectAttributes. -->
		<param name="transitLinesAttributesFile" value="null" />
		<!-- Comma-separated list of transportation modes that are handled as transit. Defaults to 'pt'. -->
		<param name="transitModes" value="pt" />
		<!-- Input file containing the transit schedule to be simulated. -->
		<param name="transitScheduleFile" value="null" />
		<!-- Optional input file containing additional attributes for transit stop facilities, stored as ObjectAttributes. -->
		<param name="transitStopsAttributesFile" value="null" />
		<!-- Set this parameter to true if transit should be simulated, false if not. -->
		<param name="useTransit" value="false" />
		<param name="usingTransitInMobsim" value="true" />
		<!-- Input file containing the vehicles used by the departures in the transit schedule. -->
		<param name="vehiclesFile" value="null" />
	</module>
	<module name="transitRouter" >
		<!-- additional time the router allocates when a line switch happens. Can be interpreted as a 'safety' time that agents need to safely transfer from one line to another -->
		<param name="additionalTransferTime" value="0.0" />
		<!-- Factor with which direct walk generalized cost is multiplied before it is compared to the pt generalized cost.  Set to a very high value to reduce direct walk results. -->
		<param name="directWalkFactor" value="1.0" />
		<!-- step size to increase searchRadius if no stops are found -->
		<param name="extensionRadius" value="200.0" />
		<!-- maximum beeline distance between stops that agents could transfer to by walking -->
		<param name="maxBeelineWalkConnectionDistance" value="100.0" />
		<!-- the radius in which stop locations are searched, given a start or target coordinate -->
		<param name="searchRadius" value="1000.0" />
	</module>
	<module name="travelTimeCalculator" >
		<!-- (only for backwards compatibility; only used if separateModes==false && + filterModes==true)  Transport modes that will be respected by the travel time collector. 'car' is default which includes also buses from the pt simulation module. -->
		<param name="analyzedModes" value="car" />
		<param name="calculateLinkToLinkTravelTimes" value="false" />
		<param name="calculateLinkTravelTimes" value="true" />
		<!-- (only for backwards compatiblity; only used if separateModes==false)  Only modes included in analyzedModes are included. -->
		<param name="filterModes" value="false" />
		<!-- The lenght (in sec) of the time period that is splited into time bins; an additional time bin is created to aggregate all travel times collected after maxTime -->
		<param name="maxTime" value="108000" />
		<!-- (only for backwards compatibility) If false, link travel times are measured and aggregated over all vehicles using the link. -->
		<param name="separateModes" value="true" />
		<!-- How to deal with congested time bins that have no link entry events. `optimistic' assumes free speed (too optimistic); 'experimental_LastMile' is experimental and probably too pessimistic. -->
		<param name="travelTimeAggregator" value="optimistic" />
		<!-- The size of the time bin (in sec) into which the link travel times are aggregated for the router -->
		<param name="travelTimeBinSize" value="900" />
		<!-- possible values: TravelTimeCalculatorArray TravelTimeCalculatorHashMap  -->
		<param name="travelTimeCalculator" value="TravelTimeCalculatorArray" />
		<!-- How to deal with link entry times at different positions during the time bin. Currently supported: average, linearinterpolation -->
		<param name="travelTimeGetter" value="average" />
	</module>
	<module name="vehicles" >
		<param name="vehiclesFile" value="null" />
	</module>
	<module name="vspExperimental" >
		<!-- (do not use except of you have to) There was a problem with pt interaction scoring.  Some people solved it by overwriting the parameters of the pt interaction activity type.  Doing this now throws an Exception.  If you still insist on doing this, set the following to true. -->
		<param name="isAbleToOverwritePtInteractionParams" value="false" />
		<param name="isGeneratingBoardingDeniedEvent" value="false" />
		<!-- if an approximation of the opportunity cost of time is included into the radius calculation for location choice.`true' will be faster, but it is an approximation.  Default is `true'; `false' is available for backwards compatibility. -->
		<param name="isUsingOpportunityCostOfTimeForLocationChoice" value="true" />
		<param name="logitScaleParamForPlansRemoval" value="1.0" />
		<!-- Options: | ignore | info | warn | abort | .  When violating VSP defaults, this results in nothing, logfile infos, logfile warnings, or aborts.  Members of VSP should use `abort' or talk to kai. -->
		<param name="vspDefaultsCheckingLevel" value="ignore" />
		<!-- if true then writes output_events in output directory.  default is `false'. Will only work when lastIteration is multiple of events writing interval -->
		<param name="writingOutputEvents" value="true" />
	</module>

</config>

2023-04-12T15:59:36,082  INFO ControlerUtils:85 Complete config dump done.
2023-04-12T15:59:36,082  INFO ControlerUtils:86 Checking consistency of config...
2023-04-12T15:59:36,083  INFO VspConfigConsistencyCheckerImpl:64 NOT running vsp config consistency check because vsp defaults checking level is set to IGNORE
2023-04-12T15:59:36,086  INFO ControlerUtils:88 Checking consistency of config done.
2023-04-12T15:59:36,092  WARN PrepareForSimImpl:229 'usePersonIdForMissingVehicleId' is deprecated. It will be removed soon.
2023-04-12T15:59:36,098  INFO Counter:70 [VehiclesImpl] added vehicle # 1
2023-04-12T15:59:36,099  INFO Counter:70 [VehiclesImpl] added vehicle # 2
2023-04-12T15:59:36,100  INFO Counter:70 [VehiclesImpl] added vehicle # 4
2023-04-12T15:59:36,100  INFO Counter:70 [VehiclesImpl] added vehicle # 8
2023-04-12T15:59:36,100  INFO Counter:70 [VehiclesImpl] added vehicle # 16
2023-04-12T15:59:36,101  INFO Counter:70 [VehiclesImpl] added vehicle # 32
2023-04-12T15:59:36,102  INFO Counter:70 [VehiclesImpl] added vehicle # 64
2023-04-12T15:59:36,116  INFO PreProcessDijkstra:119 nodes in dead ends: 0 (total nodes: 15). Done in 0 ms
2023-04-12T15:59:36,117  WARN PreProcessEuclidean:60 There are links with stored length smaller than their Euclidean distance in this network. Thus, A* cannot guarantee to calculate the least-cost paths between two nodes.
2023-04-12T15:59:36,117  INFO PreProcessLandmarks:113 Putting landmarks on network...
2023-04-12T15:59:36,118  INFO LandmarkerPieSlices:97 Filling sectors...
2023-04-12T15:59:36,119  INFO LandmarkerPieSlices:164 There is no node in sector 0!
2023-04-12T15:59:36,119  INFO LandmarkerPieSlices:164 There is no node in sector 1!
2023-04-12T15:59:36,119  INFO LandmarkerPieSlices:164 There is no node in sector 2!
2023-04-12T15:59:36,119  INFO LandmarkerPieSlices:164 There is no node in sector 3!
2023-04-12T15:59:36,119  INFO LandmarkerPieSlices:164 There is no node in sector 4!
2023-04-12T15:59:36,119  INFO LandmarkerPieSlices:164 There is no node in sector 5!
2023-04-12T15:59:36,119  INFO LandmarkerPieSlices:164 There is no node in sector 6!
2023-04-12T15:59:36,120  INFO LandmarkerPieSlices:164 There is no node in sector 7!
2023-04-12T15:59:36,120  INFO LandmarkerPieSlices:164 There is no node in sector 8!
2023-04-12T15:59:36,120  INFO LandmarkerPieSlices:164 There is no node in sector 9!
2023-04-12T15:59:36,120  INFO LandmarkerPieSlices:164 There is no node in sector 10!
2023-04-12T15:59:36,120  INFO LandmarkerPieSlices:164 There is no node in sector 11!
2023-04-12T15:59:36,120  INFO LandmarkerPieSlices:164 There is no node in sector 12!
2023-04-12T15:59:36,120  INFO LandmarkerPieSlices:164 There is no node in sector 13!
2023-04-12T15:59:36,120  INFO LandmarkerPieSlices:164 There is no node in sector 14!
2023-04-12T15:59:36,122  INFO LandmarkerPieSlices:101 Reducing number of landmarks from 16 to 1...
2023-04-12T15:59:36,122  INFO LandmarkerPieSlices:108 Refining landmarks...
2023-04-12T15:59:36,122  INFO LandmarkerPieSlices:110 done
2023-04-12T15:59:36,122  INFO PreProcessLandmarks:116 done in 5 ms
2023-04-12T15:59:36,122  INFO PreProcessLandmarks:118 Initializing landmarks data
2023-04-12T15:59:36,123  INFO PreProcessLandmarks:130 Calculating distance from each node to each of the 16 landmarks using 2 threads...
2023-04-12T15:59:36,124  INFO PreProcessLandmarks:140 wait for landmarks Calculator to finish...
2023-04-12T15:59:36,125  INFO PreProcessLandmarks:164 done in 2 ms
2023-04-12T15:59:36,131  INFO NetworkImpl:165  node # 1
2023-04-12T15:59:36,131  INFO NetworkImpl:165  node # 4
2023-04-12T15:59:36,133  INFO NetworkImpl:161  link # 1
2023-04-12T15:59:36,133  INFO NetworkImpl:161  link # 4
2023-04-12T15:59:36,133  INFO NetworkImpl:161  link # 16
2023-04-12T15:59:36,134  WARN RandomizingTimeDistanceTravelDisutilityFactory:113 There will be no routing randomness. The randomization of the travel disutility requires the monetary distance rate to be different than zero. Continuing anyway.
2023-04-12T15:59:36,134  WARN RandomizingTimeDistanceTravelDisutilityFactory:118 There will be no routing randomness. The randomization of the travel disutility requires the travel time cost rate to be different than zero. Continuing anyway.
2023-04-12T15:59:36,136  INFO RandomizingTimeDistanceTravelDisutilityFactory:86  sigma: 3.0; resulting normalization: 0.011108996538242306
2023-04-12T15:59:36,137  INFO PreProcessDijkstra:119 nodes in dead ends: 0 (total nodes: 15). Done in 0 ms
2023-04-12T15:59:36,138  WARN PreProcessEuclidean:60 There are links with stored length smaller than their Euclidean distance in this network. Thus, A* cannot guarantee to calculate the least-cost paths between two nodes.
2023-04-12T15:59:36,138  INFO PreProcessLandmarks:113 Putting landmarks on network...
2023-04-12T15:59:36,138  INFO LandmarkerPieSlices:97 Filling sectors...
2023-04-12T15:59:36,138  INFO LandmarkerPieSlices:164 There is no node in sector 0!
2023-04-12T15:59:36,138  INFO LandmarkerPieSlices:164 There is no node in sector 1!
2023-04-12T15:59:36,138  INFO LandmarkerPieSlices:164 There is no node in sector 2!
2023-04-12T15:59:36,138  INFO LandmarkerPieSlices:164 There is no node in sector 3!
2023-04-12T15:59:36,138  INFO LandmarkerPieSlices:164 There is no node in sector 4!
2023-04-12T15:59:36,138  INFO LandmarkerPieSlices:164 There is no node in sector 5!
2023-04-12T15:59:36,138  INFO LandmarkerPieSlices:164 There is no node in sector 6!
2023-04-12T15:59:36,139  INFO LandmarkerPieSlices:164 There is no node in sector 7!
2023-04-12T15:59:36,139  INFO LandmarkerPieSlices:164 There is no node in sector 8!
2023-04-12T15:59:36,139  INFO LandmarkerPieSlices:164 There is no node in sector 9!
2023-04-12T15:59:36,139  INFO LandmarkerPieSlices:164 There is no node in sector 10!
2023-04-12T15:59:36,139  INFO LandmarkerPieSlices:164 There is no node in sector 11!
2023-04-12T15:59:36,139  INFO LandmarkerPieSlices:164 There is no node in sector 12!
2023-04-12T15:59:36,139  INFO LandmarkerPieSlices:164 There is no node in sector 13!
2023-04-12T15:59:36,139  INFO LandmarkerPieSlices:164 There is no node in sector 14!
2023-04-12T15:59:36,139  INFO LandmarkerPieSlices:101 Reducing number of landmarks from 16 to 1...
2023-04-12T15:59:36,139  INFO LandmarkerPieSlices:108 Refining landmarks...
2023-04-12T15:59:36,139  INFO LandmarkerPieSlices:110 done
2023-04-12T15:59:36,139  INFO PreProcessLandmarks:116 done in 1 ms
2023-04-12T15:59:36,139  INFO PreProcessLandmarks:118 Initializing landmarks data
2023-04-12T15:59:36,140  INFO PreProcessLandmarks:130 Calculating distance from each node to each of the 16 landmarks using 2 threads...
2023-04-12T15:59:36,140  INFO PreProcessLandmarks:140 wait for landmarks Calculator to finish...
2023-04-12T15:59:36,140  INFO PreProcessLandmarks:164 done in 0 ms
2023-04-12T15:59:36,143  INFO RandomizingTimeDistanceTravelDisutilityFactory:86  sigma: 3.0; resulting normalization: 0.011108996538242306
2023-04-12T15:59:36,144  INFO Counter:70 [PersonPrepareForSim] handled person # 1
2023-04-12T15:59:36,144  INFO Counter:70 [PersonPrepareForSim] handled person # 2
2023-04-12T15:59:36,145  INFO Counter:70 [PersonPrepareForSim] handled person # 4
2023-04-12T15:59:36,145  INFO Counter:70 [PersonPrepareForSim] handled person # 8
2023-04-12T15:59:36,145  INFO Counter:70 [PersonPrepareForSim] handled person # 16
2023-04-12T15:59:36,146  INFO Counter:70 [PersonPrepareForSim] handled person # 32
2023-04-12T15:59:36,146  INFO Counter:70 [PersonPrepareForSim] handled person # 64
2023-04-12T15:59:36,147  INFO Counter:75 [PersonPrepareForSim] handled person # 100
2023-04-12T15:59:36,148  INFO AbstractController:134 ###################################################
2023-04-12T15:59:36,148  INFO AbstractController:135 ### ITERATION 0 BEGINS
2023-04-12T15:59:36,150  INFO ControlerListenerManagerImpl:146 calling notifyIterationStarts on org.matsim.analysis.LegHistogramListener
2023-04-12T15:59:36,150  INFO ControlerListenerManagerImpl:146 calling notifyIterationStarts on org.matsim.analysis.LinkStatsControlerListener
2023-04-12T15:59:36,150  INFO ControlerListenerManagerImpl:146 calling notifyIterationStarts on org.matsim.core.replanning.ReplanningContextImpl
2023-04-12T15:59:36,150  INFO ControlerListenerManagerImpl:146 calling notifyIterationStarts on org.matsim.core.scoring.ScoringFunctionsForPopulation$$Lambda$224/0x0000000800f06568
2023-04-12T15:59:36,163  INFO ControlerListenerManagerImpl:146 calling notifyIterationStarts on org.matsim.core.scoring.ExperiencedPlansServiceImpl$1
2023-04-12T15:59:36,163  INFO ControlerListenerManagerImpl:149 [it.0] all ControlerIterationStartsListeners called.
2023-04-12T15:59:36,164  INFO ControlerListenerManagerImpl:225 calling notifyBeforeMobsim on org.matsim.core.controler.corelisteners.EventsHandlingImpl
2023-04-12T15:59:36,164  INFO EventsManagerImpl:168 resetting Event-Handlers
2023-04-12T15:59:36,164  INFO EventsManagerImpl:175   org.matsim.core.trafficmonitoring.TravelTimeCalculator
2023-04-12T15:59:36,164  INFO EventsManagerImpl:175   org.matsim.analysis.VolumesAnalyzer
2023-04-12T15:59:36,164  INFO EventsManagerImpl:175   org.matsim.core.scoring.ScoringFunctionsForPopulation
2023-04-12T15:59:36,164  INFO EventsManagerImpl:175   org.matsim.analysis.LegHistogram
2023-04-12T15:59:36,164  INFO EventsManagerImpl:175   org.matsim.analysis.CalcLegTimes
2023-04-12T15:59:36,170  INFO EventsManagerImpl:138 adding Event-Handler: org.matsim.core.events.algorithms.EventWriterXML
2023-04-12T15:59:36,170  INFO EventsManagerImpl:144   org.matsim.core.events.algorithms.EventWriter
2023-04-12T15:59:36,170  INFO EventsManagerImpl:144   org.matsim.core.events.handler.BasicEventHandler
2023-04-12T15:59:36,170  INFO EventsManagerImpl:205     > org.matsim.api.core.v01.events.Event
2023-04-12T15:59:36,170  INFO EventsManagerImpl:154 
2023-04-12T15:59:36,170  INFO EventsManagerImpl:138 adding Event-Handler: org.matsim.core.events.algorithms.EventWriterXML
2023-04-12T15:59:36,170  INFO EventsManagerImpl:144   org.matsim.core.events.algorithms.EventWriter
2023-04-12T15:59:36,170  INFO EventsManagerImpl:144   org.matsim.core.events.handler.BasicEventHandler
2023-04-12T15:59:36,171  INFO EventsManagerImpl:205     > org.matsim.api.core.v01.events.Event
2023-04-12T15:59:36,171  INFO EventsManagerImpl:154 
2023-04-12T15:59:36,171  INFO ControlerListenerManagerImpl:225 calling notifyBeforeMobsim on org.matsim.core.controler.corelisteners.PlansDumpingImpl
2023-04-12T15:59:36,171  INFO PlansDumpingImpl:77 dumping plans...
2023-04-12T15:59:36,346  INFO Counter:70 [PopulationWriter] dumped person # 1
2023-04-12T15:59:36,347  INFO Counter:70 [PopulationWriter] dumped person # 2
2023-04-12T15:59:36,347  INFO Counter:70 [PopulationWriter] dumped person # 4
2023-04-12T15:59:36,348  INFO Counter:70 [PopulationWriter] dumped person # 8
2023-04-12T15:59:36,348  INFO Counter:70 [PopulationWriter] dumped person # 16
2023-04-12T15:59:36,350  INFO Counter:70 [PopulationWriter] dumped person # 32
2023-04-12T15:59:36,354  INFO Counter:70 [PopulationWriter] dumped person # 64
2023-04-12T15:59:36,358  INFO PopulationWriter:145 Population written to: ./output/ITERS/it.0/0.plans.xml.gz
2023-04-12T15:59:36,359  INFO Counter:75 [PopulationWriter] dumped person # 100
2023-04-12T15:59:36,360  INFO PlansDumpingImpl:94 finished plans dump.
2023-04-12T15:59:36,360  INFO ControlerListenerManagerImpl:230 calling notifyBeforeMobsim on org.matsim.core.population.VspPlansCleaner
2023-04-12T15:59:36,360  INFO ControlerListenerManagerImpl:233 [it.0] all ControlerBeforeMobsimListeners called.
2023-04-12T15:59:36,362  INFO RandomizingTimeDistanceTravelDisutilityFactory:86  sigma: 3.0; resulting normalization: 0.011108996538242306
2023-04-12T15:59:36,362  INFO RandomizingTimeDistanceTravelDisutilityFactory:86  sigma: 3.0; resulting normalization: 0.011108996538242306
2023-04-12T15:59:36,364  INFO Counter:70 [PersonPrepareForSim] handled person # 1
2023-04-12T15:59:36,364  INFO Counter:70 [PersonPrepareForSim] handled person # 2
2023-04-12T15:59:36,364  INFO Counter:70 [PersonPrepareForSim] handled person # 4
2023-04-12T15:59:36,364  INFO Counter:70 [PersonPrepareForSim] handled person # 8
2023-04-12T15:59:36,364  INFO Counter:70 [PersonPrepareForSim] handled person # 16
2023-04-12T15:59:36,364  INFO Counter:70 [PersonPrepareForSim] handled person # 32
2023-04-12T15:59:36,364  INFO Counter:70 [PersonPrepareForSim] handled person # 64
2023-04-12T15:59:36,364  INFO Counter:75 [PersonPrepareForSim] handled person # 100
2023-04-12T15:59:36,403  INFO MobsimListenerManager:50 calling addQueueSimulationListener
2023-04-12T15:59:36,404  INFO MobsimListenerManager:54   assigned class org.matsim.core.mobsim.framework.listeners.MobsimListener to interface org.matsim.vis.snapshotwriters.SnapshotWriterManager
2023-04-12T15:59:36,404  INFO MobsimListenerManager:54   assigned class org.matsim.core.mobsim.framework.listeners.MobsimListener to interface org.matsim.core.mobsim.framework.listeners.MobsimListener
2023-04-12T15:59:36,404  INFO MobsimListenerManager:54   assigned class org.matsim.core.mobsim.framework.listeners.MobsimListener to interface org.matsim.core.mobsim.framework.listeners.MobsimInitializedListener
2023-04-12T15:59:36,404  INFO MobsimListenerManager:54   assigned class org.matsim.core.mobsim.framework.listeners.MobsimListener to interface org.matsim.core.mobsim.framework.listeners.MobsimAfterSimStepListener
2023-04-12T15:59:36,404  INFO MobsimListenerManager:54   assigned class org.matsim.core.mobsim.framework.listeners.MobsimListener to interface org.matsim.core.mobsim.framework.listeners.MobsimBeforeCleanupListener
2023-04-12T15:59:36,414  WARN QueueWithBuffer:500 Link 1 too small: enlarge storage capacity from: 1333.3333333333333 Vehicles to: 3599.712023038157 Vehicles.  This is not fatal, but modifies the traffic flow dynamics.
2023-04-12T15:59:36,415  WARN QueueWithBuffer:500 Link 20 too small: enlarge storage capacity from: 1333.3333333333333 Vehicles to: 3599.712023038157 Vehicles.  This is not fatal, but modifies the traffic flow dynamics.
2023-04-12T15:59:36,415  WARN QueueWithBuffer:500 Link 21 too small: enlarge storage capacity from: 1333.3333333333333 Vehicles to: 3599.712023038157 Vehicles.  This is not fatal, but modifies the traffic flow dynamics.
2023-04-12T15:59:36,415  WARN QueueWithBuffer:500 Link 22 too small: enlarge storage capacity from: 4666.666666666667 Vehicles to: 12598.99208063355 Vehicles.  This is not fatal, but modifies the traffic flow dynamics.
2023-04-12T15:59:36,415  WARN QueueWithBuffer:500 Link 23 too small: enlarge storage capacity from: 1333.3333333333333 Vehicles to: 3599.712023038157 Vehicles.  This is not fatal, but modifies the traffic flow dynamics.
2023-04-12T15:59:36,420  INFO QSimProvider:131 Added MobsimEngine class org.matsim.core.mobsim.qsim.ActivityEngineDefaultImpl
2023-04-12T15:59:36,420  INFO QSimProvider:137 Added Activityhandler class org.matsim.core.mobsim.qsim.ActivityEngineDefaultImpl
2023-04-12T15:59:36,421  INFO QSimProvider:143 Added DepartureHandler class org.matsim.core.mobsim.qsim.qnetsimengine.VehicularDepartureHandler
2023-04-12T15:59:36,421  INFO QSimProvider:131 Added MobsimEngine class org.matsim.core.mobsim.qsim.qnetsimengine.QNetsimEngineWithThreadpool
2023-04-12T15:59:36,421  INFO QSimProvider:131 Added MobsimEngine class org.matsim.core.mobsim.qsim.DefaultTeleportationEngine
2023-04-12T15:59:36,421  INFO QSimProvider:143 Added DepartureHandler class org.matsim.core.mobsim.qsim.DefaultTeleportationEngine
2023-04-12T15:59:36,421  INFO QSimProvider:149 Added AgentSource class org.matsim.core.mobsim.qsim.agents.PopulationAgentSource
2023-04-12T15:59:36,421  INFO MobsimListenerManager:50 calling addQueueSimulationListener
2023-04-12T15:59:36,421  INFO MobsimListenerManager:54   assigned class org.matsim.core.mobsim.framework.listeners.MobsimListener to interface org.matsim.core.mobsim.qsim.messagequeueengine.MessageQueueEngine
2023-04-12T15:59:36,421  INFO MobsimListenerManager:54   assigned class org.matsim.core.mobsim.framework.listeners.MobsimListener to interface org.matsim.core.mobsim.framework.listeners.MobsimBeforeSimStepListener
2023-04-12T15:59:36,421  INFO MobsimListenerManager:54   assigned class org.matsim.core.mobsim.framework.listeners.MobsimListener to interface org.matsim.core.mobsim.framework.listeners.MobsimListener
2023-04-12T15:59:36,421  INFO QSimProvider:155 Added MobsimListener class org.matsim.core.mobsim.qsim.messagequeueengine.MessageQueueEngine
2023-04-12T15:59:36,426  INFO PopulationUtils:1202 adding scenario element for allpersons container
2023-04-12T15:59:36,426  INFO PopulationImpl:107  person # 1
2023-04-12T15:59:36,426  INFO PopulationImpl:107  person # 4
2023-04-12T15:59:36,426  INFO PopulationImpl:107  person # 16
2023-04-12T15:59:36,428  INFO PopulationImpl:107  person # 64
2023-04-12T15:59:36,428  INFO VehicleUtils:328 adding scenario element for allvehicles container
2023-04-12T15:59:36,428  INFO Counter:70 [VehiclesImpl] added vehicle # 1
2023-04-12T15:59:36,428  INFO Counter:70 [VehiclesImpl] added vehicle # 2
2023-04-12T15:59:36,428  INFO Counter:70 [VehiclesImpl] added vehicle # 4
2023-04-12T15:59:36,428  INFO Counter:70 [VehiclesImpl] added vehicle # 8
2023-04-12T15:59:36,429  INFO Counter:70 [VehiclesImpl] added vehicle # 16
2023-04-12T15:59:36,429  INFO Counter:70 [VehiclesImpl] added vehicle # 32
2023-04-12T15:59:36,429  INFO Counter:70 [VehiclesImpl] added vehicle # 64
2023-04-12T15:59:36,431  INFO AbstractQNetsimEngine:428 Assigned 15 nodes and 23 links to QSimEngineRunner #0
2023-04-12T15:59:36,433  INFO EventsManagerImpl:115  event # 1
2023-04-12T15:59:36,435  INFO EventsManagerImpl:115  event # 4
2023-04-12T15:59:36,436  INFO AbstractQNetsimEngine:366 SIMULATION (QNetsimEngine) AT 05:58:30 : #links=0 #nodes=1
2023-04-12T15:59:36,441  INFO QSim:566 SIMULATION (NEW QSim) AT 05:58:30 : #Veh=100 lost=0 simT=0.0s realT=0s; (s/r): 0.0
2023-04-12T15:59:36,447  INFO EventsManagerImpl:115  event # 16
2023-04-12T15:59:36,451  INFO EventsManagerImpl:115  event # 64
2023-04-12T15:59:36,451  INFO AbstractQNetsimEngine:366 SIMULATION (QNetsimEngine) AT 06:00:00 : #links=2 #nodes=1
2023-04-12T15:59:36,452  INFO QSim:566 SIMULATION (NEW QSim) AT 06:00:00 : #Veh=100 lost=0 simT=90.0s realT=0s; (s/r): Infinity
2023-04-12T15:59:36,454  INFO EventsManagerImpl:115  event # 256
2023-04-12T15:59:36,499  INFO EventsManagerImpl:115  event # 1024
2023-04-12T15:59:36,587  INFO AbstractQNetsimEngine:366 SIMULATION (QNetsimEngine) AT 07:00:00 : #links=1 #nodes=0
2023-04-12T15:59:36,587  INFO QSim:566 SIMULATION (NEW QSim) AT 07:00:00 : #Veh=100 lost=0 simT=3690.0s realT=0s; (s/r): Infinity
2023-04-12T15:59:36,685  INFO AbstractQNetsimEngine:366 SIMULATION (QNetsimEngine) AT 08:00:00 : #links=1 #nodes=0
2023-04-12T15:59:36,685  INFO QSim:566 SIMULATION (NEW QSim) AT 08:00:00 : #Veh=5 lost=0 simT=7290.0s realT=0s; (s/r): Infinity
2023-04-12T15:59:36,770  INFO AbstractQNetsimEngine:366 SIMULATION (QNetsimEngine) AT 09:00:00 : #links=1 #nodes=0
2023-04-12T15:59:36,770  INFO QSim:566 SIMULATION (NEW QSim) AT 09:00:00 : #Veh=4 lost=0 simT=10890.0s realT=0s; (s/r): Infinity
2023-04-12T15:59:36,851  INFO AbstractQNetsimEngine:366 SIMULATION (QNetsimEngine) AT 10:00:00 : #links=0 #nodes=0
2023-04-12T15:59:36,851  INFO QSim:566 SIMULATION (NEW QSim) AT 10:00:00 : #Veh=2 lost=0 simT=14490.0s realT=0s; (s/r): Infinity
2023-04-12T15:59:36,926  INFO AbstractQNetsimEngine:366 SIMULATION (QNetsimEngine) AT 11:00:00 : #links=0 #nodes=0
2023-04-12T15:59:36,926  INFO QSim:566 SIMULATION (NEW QSim) AT 11:00:00 : #Veh=1 lost=0 simT=18090.0s realT=0s; (s/r): Infinity
2023-04-12T15:59:37,001  INFO AbstractQNetsimEngine:366 SIMULATION (QNetsimEngine) AT 12:00:00 : #links=0 #nodes=0
2023-04-12T15:59:37,001  INFO QSim:566 SIMULATION (NEW QSim) AT 12:00:00 : #Veh=1 lost=0 simT=21690.0s realT=0s; (s/r): Infinity
2023-04-12T15:59:37,078  INFO AbstractQNetsimEngine:366 SIMULATION (QNetsimEngine) AT 13:00:00 : #links=1 #nodes=0
2023-04-12T15:59:37,078  INFO QSim:566 SIMULATION (NEW QSim) AT 13:00:00 : #Veh=1 lost=0 simT=25290.0s realT=0s; (s/r): Infinity
2023-04-12T15:59:37,113  INFO AbstractController$9:235 ### ITERATION 0 fires after mobsim event
2023-04-12T15:59:37,113  INFO ControlerListenerManagerImpl:249 calling notifyAfterMobsim on org.matsim.analysis.LegTimesControlerListener
2023-04-12T15:59:37,113  INFO Gbl:192 Thread performance: Thread=class org.matsim.core.events.SimStepParallelEventsManagerImpl$ProcessEventsRunnable0  cpu-time=0.0sec
2023-04-12T15:59:37,116  INFO LegTimesControlerListener:51 [0] average trip (probably: leg) duration is: 1695 seconds = 00:28:15
2023-04-12T15:59:37,116  INFO ControlerListenerManagerImpl:249 calling notifyAfterMobsim on org.matsim.core.events.MobsimScopeEventHandling
2023-04-12T15:59:37,117  INFO ControlerListenerManagerImpl:249 calling notifyAfterMobsim on org.matsim.core.scoring.EventsToActivities$1
2023-04-12T15:59:37,118  INFO ControlerListenerManagerImpl:252 [it.0] all ControlerAfterMobsimListeners called.
2023-04-12T15:59:37,118  INFO AbstractController$4:160 ### ITERATION 0 fires scoring event
2023-04-12T15:59:37,118  INFO ControlerListenerManagerImpl:184 calling notifyScoring on org.matsim.core.scoring.PlansScoringImpl
2023-04-12T15:59:37,120  INFO NewScoreAssignerImpl:58 it: 0 msaStart: null
2023-04-12T15:59:37,121  INFO ControlerListenerManagerImpl:195 [it.0] all ControlerScoringListeners called.
2023-04-12T15:59:37,121  INFO AbstractController$5:168 ### ITERATION 0 fires iteration end event
2023-04-12T15:59:37,121  INFO ControlerListenerManagerImpl:161 calling notifyIterationEnds on org.matsim.core.controler.corelisteners.EventsHandlingImpl
2023-04-12T15:59:37,122  INFO EventsManagerImpl:159 removing Event-Handler: org.matsim.core.events.algorithms.EventWriterXML
2023-04-12T15:59:37,122  INFO EventsManagerImpl:159 removing Event-Handler: org.matsim.core.events.algorithms.EventWriterXML
2023-04-12T15:59:37,122  INFO ControlerListenerManagerImpl:161 calling notifyIterationEnds on org.matsim.core.scoring.PlansScoringImpl
2023-04-12T15:59:37,123  INFO ControlerListenerManagerImpl:168 calling notifyIterationEnds on org.matsim.counts.CountsControlerListener
2023-04-12T15:59:37,123  INFO ControlerListenerManagerImpl:168 calling notifyIterationEnds on org.matsim.analysis.ModeStatsControlerListener
2023-04-12T15:59:37,123  INFO ModeStatsControlerListener:145 Mode shares over all 201.0 trips found. MainModeIdentifier: class org.matsim.core.router.RoutingModeMainModeIdentifier
2023-04-12T15:59:37,123  INFO ModeStatsControlerListener:152 -- mode share of mode car = 1.0
2023-04-12T15:59:37,125  INFO ControlerListenerManagerImpl:168 calling notifyIterationEnds on org.matsim.analysis.ScoreStatsControlerListener
2023-04-12T15:59:37,125  INFO ScoreStatsControlerListener:182 -- avg. score of the executed plan of each agent: 64.75686659291274
2023-04-12T15:59:37,126  INFO ScoreStatsControlerListener:183 -- avg. score of the worst plan of each agent: 64.75686659291274
2023-04-12T15:59:37,126  INFO ScoreStatsControlerListener:184 -- avg. of the avg. plan score per agent: 64.75686659291274
2023-04-12T15:59:37,126  INFO ScoreStatsControlerListener:185 -- avg. score of the best plan of each agent: 64.75686659291274
2023-04-12T15:59:37,128  INFO ControlerListenerManagerImpl:168 calling notifyIterationEnds on org.matsim.analysis.IterationTravelStatsControlerListener
2023-04-12T15:59:37,137  INFO TravelDistanceStats:144 -- average leg distance per plan (executed plans only): 44776.119402985074 meters
2023-04-12T15:59:37,137  INFO TravelDistanceStats:145 average leg distance per Person (executed plans only): 90000.0 meters (statistic on all 201 legs which have a finite distance)
2023-04-12T15:59:37,137  INFO TravelDistanceStats:146 -- average trip distance per plan (executed plans only): 44776.119402985074 meters
2023-04-12T15:59:37,138  INFO TravelDistanceStats:147 average trip distance per Person (executed plans only): 90000.0 meters (statistic on all 201 trips which have a finite distance)
2023-04-12T15:59:37,138  INFO TravelDistanceStats:148 (TravelDistanceStats takes an average over all legs where the simulation reports travelled (network) distances
2023-04-12T15:59:37,138  INFO TravelDistanceStats:149 (and teleported legs whose route contains a distance.)
2023-04-12T15:59:37,669  INFO ControlerListenerManagerImpl:168 calling notifyIterationEnds on org.matsim.analysis.LegHistogramListener
2023-04-12T15:59:37,672  INFO LegHistogramListener:73 number of legs:	201	100%
2023-04-12T15:59:37,673  INFO LegHistogramListener:80 number of car legs:	201	100.0%
2023-04-12T15:59:37,787  INFO ControlerListenerManagerImpl:168 calling notifyIterationEnds on org.matsim.analysis.LinkStatsControlerListener
2023-04-12T15:59:37,787  INFO ControlerListenerManagerImpl:172 [it.0] all ControlerIterationEndsListeners called.
2023-04-12T15:59:37,842  INFO AbstractController:182 ### ITERATION 0 ENDS
2023-04-12T15:59:37,842  INFO AbstractController:183 ###################################################
2023-04-12T15:59:37,842  INFO AbstractController:134 ###################################################
2023-04-12T15:59:37,842  INFO AbstractController:135 ### ITERATION 1 BEGINS
2023-04-12T15:59:37,843  INFO ControlerListenerManagerImpl:146 calling notifyIterationStarts on org.matsim.analysis.LegHistogramListener
2023-04-12T15:59:37,843  INFO ControlerListenerManagerImpl:146 calling notifyIterationStarts on org.matsim.analysis.LinkStatsControlerListener
2023-04-12T15:59:37,843  INFO ControlerListenerManagerImpl:146 calling notifyIterationStarts on org.matsim.core.replanning.ReplanningContextImpl
2023-04-12T15:59:37,843  INFO ControlerListenerManagerImpl:146 calling notifyIterationStarts on org.matsim.core.scoring.ScoringFunctionsForPopulation$$Lambda$224/0x0000000800f06568
2023-04-12T15:59:37,843  INFO ControlerListenerManagerImpl:146 calling notifyIterationStarts on org.matsim.core.scoring.ExperiencedPlansServiceImpl$1
2023-04-12T15:59:37,843  INFO ControlerListenerManagerImpl:149 [it.1] all ControlerIterationStartsListeners called.
2023-04-12T15:59:37,844  INFO ControlerListenerManagerImpl:206 calling notifyReplanning on org.matsim.core.controler.corelisteners.PlansReplanningImpl
2023-04-12T15:59:37,844  INFO RandomizingTimeDistanceTravelDisutilityFactory:86  sigma: 3.0; resulting normalization: 0.011108996538242306
2023-04-12T15:59:37,845  INFO RandomizingTimeDistanceTravelDisutilityFactory:86  sigma: 3.0; resulting normalization: 0.011108996538242306
2023-04-12T15:59:37,847  INFO GenericPlanStrategyImpl:127 Plan-Strategy finished, 89 plans handled. Strategy: BestPlanSelector
2023-04-12T15:59:37,847  INFO AbstractMultithreadedModule:142 [PlanRouter] starting 2 threads, handling 11 plans
2023-04-12T15:59:37,851  INFO Counter:70 [PlanRouter] handled plan # 1
2023-04-12T15:59:37,851  INFO Counter:70 [PlanRouter] handled plan # 2
2023-04-12T15:59:37,852  INFO Counter:70 [PlanRouter] handled plan # 4
2023-04-12T15:59:37,852  INFO Counter:70 [PlanRouter] handled plan # 8
2023-04-12T15:59:37,853  INFO AbstractMultithreadedModule:157 [PlanRouter] all 2 threads finished.
2023-04-12T15:59:37,853  INFO GenericPlanStrategyImpl:127 Plan-Strategy finished, 11 plans handled. Strategy: RandomPlanSelector_ReRoute
2023-04-12T15:59:37,853  INFO ControlerListenerManagerImpl:214 [it.1] all ControlerReplanningListeners called.
2023-04-12T15:59:37,853  INFO ControlerListenerManagerImpl:225 calling notifyBeforeMobsim on org.matsim.core.controler.corelisteners.EventsHandlingImpl
2023-04-12T15:59:37,853  INFO EventsManagerImpl:168 resetting Event-Handlers
2023-04-12T15:59:37,853  INFO EventsManagerImpl:175   org.matsim.core.trafficmonitoring.TravelTimeCalculator
2023-04-12T15:59:37,853  INFO EventsManagerImpl:175   org.matsim.analysis.VolumesAnalyzer
2023-04-12T15:59:37,853  INFO EventsManagerImpl:175   org.matsim.core.scoring.ScoringFunctionsForPopulation
2023-04-12T15:59:37,853  INFO EventsManagerImpl:175   org.matsim.analysis.LegHistogram
2023-04-12T15:59:37,853  INFO EventsManagerImpl:175   org.matsim.analysis.CalcLegTimes
2023-04-12T15:59:37,853  INFO ControlerListenerManagerImpl:225 calling notifyBeforeMobsim on org.matsim.core.controler.corelisteners.PlansDumpingImpl
2023-04-12T15:59:37,853  INFO PlansDumpingImpl:77 dumping plans...
2023-04-12T15:59:37,854  INFO Counter:70 [PopulationWriter] dumped person # 1
2023-04-12T15:59:37,855  INFO Counter:70 [PopulationWriter] dumped person # 2
2023-04-12T15:59:37,855  INFO Counter:70 [PopulationWriter] dumped person # 4
2023-04-12T15:59:37,855  INFO Counter:70 [PopulationWriter] dumped person # 8
2023-04-12T15:59:37,856  INFO Counter:70 [PopulationWriter] dumped person # 16
2023-04-12T15:59:37,857  INFO Counter:70 [PopulationWriter] dumped person # 32
2023-04-12T15:59:37,860  INFO Counter:70 [PopulationWriter] dumped person # 64
2023-04-12T15:59:37,863  INFO PopulationWriter:145 Population written to: ./output/ITERS/it.1/1.plans.xml.gz
2023-04-12T15:59:37,863  INFO Counter:75 [PopulationWriter] dumped person # 100
2023-04-12T15:59:37,863  INFO PlansDumpingImpl:94 finished plans dump.
2023-04-12T15:59:37,863  INFO ControlerListenerManagerImpl:230 calling notifyBeforeMobsim on org.matsim.core.population.VspPlansCleaner
2023-04-12T15:59:37,863  INFO ControlerListenerManagerImpl:233 [it.1] all ControlerBeforeMobsimListeners called.
2023-04-12T15:59:37,864  INFO RandomizingTimeDistanceTravelDisutilityFactory:86  sigma: 3.0; resulting normalization: 0.011108996538242306
2023-04-12T15:59:37,864  INFO RandomizingTimeDistanceTravelDisutilityFactory:86  sigma: 3.0; resulting normalization: 0.011108996538242306
2023-04-12T15:59:37,864  INFO Counter:70 [PersonPrepareForSim] handled person # 1
2023-04-12T15:59:37,864  INFO Counter:70 [PersonPrepareForSim] handled person # 2
2023-04-12T15:59:37,865  INFO Counter:70 [PersonPrepareForSim] handled person # 4
2023-04-12T15:59:37,865  INFO Counter:70 [PersonPrepareForSim] handled person # 8
2023-04-12T15:59:37,865  INFO Counter:70 [PersonPrepareForSim] handled person # 16
2023-04-12T15:59:37,865  INFO Counter:70 [PersonPrepareForSim] handled person # 32
2023-04-12T15:59:37,865  INFO Counter:70 [PersonPrepareForSim] handled person # 64
2023-04-12T15:59:37,865  INFO Counter:75 [PersonPrepareForSim] handled person # 100
2023-04-12T15:59:37,875  INFO MobsimListenerManager:50 calling addQueueSimulationListener
2023-04-12T15:59:37,875  INFO MobsimListenerManager:54   assigned class org.matsim.core.mobsim.framework.listeners.MobsimListener to interface org.matsim.vis.snapshotwriters.SnapshotWriterManager
2023-04-12T15:59:37,875  INFO MobsimListenerManager:54   assigned class org.matsim.core.mobsim.framework.listeners.MobsimListener to interface org.matsim.core.mobsim.framework.listeners.MobsimListener
2023-04-12T15:59:37,875  INFO MobsimListenerManager:54   assigned class org.matsim.core.mobsim.framework.listeners.MobsimListener to interface org.matsim.core.mobsim.framework.listeners.MobsimInitializedListener
2023-04-12T15:59:37,875  INFO MobsimListenerManager:54   assigned class org.matsim.core.mobsim.framework.listeners.MobsimListener to interface org.matsim.core.mobsim.framework.listeners.MobsimAfterSimStepListener
2023-04-12T15:59:37,875  INFO MobsimListenerManager:54   assigned class org.matsim.core.mobsim.framework.listeners.MobsimListener to interface org.matsim.core.mobsim.framework.listeners.MobsimBeforeCleanupListener
2023-04-12T15:59:37,876  WARN QueueWithBuffer:500 Link 1 too small: enlarge storage capacity from: 1333.3333333333333 Vehicles to: 3599.712023038157 Vehicles.  This is not fatal, but modifies the traffic flow dynamics.
2023-04-12T15:59:37,876  WARN QueueWithBuffer:500 Link 20 too small: enlarge storage capacity from: 1333.3333333333333 Vehicles to: 3599.712023038157 Vehicles.  This is not fatal, but modifies the traffic flow dynamics.
2023-04-12T15:59:37,876  WARN QueueWithBuffer:500 Link 21 too small: enlarge storage capacity from: 1333.3333333333333 Vehicles to: 3599.712023038157 Vehicles.  This is not fatal, but modifies the traffic flow dynamics.
2023-04-12T15:59:37,876  WARN QueueWithBuffer:500 Link 22 too small: enlarge storage capacity from: 4666.666666666667 Vehicles to: 12598.99208063355 Vehicles.  This is not fatal, but modifies the traffic flow dynamics.
2023-04-12T15:59:37,876  WARN QueueWithBuffer:500 Link 23 too small: enlarge storage capacity from: 1333.3333333333333 Vehicles to: 3599.712023038157 Vehicles.  This is not fatal, but modifies the traffic flow dynamics.
2023-04-12T15:59:37,877  INFO QSimProvider:131 Added MobsimEngine class org.matsim.core.mobsim.qsim.ActivityEngineDefaultImpl
2023-04-12T15:59:37,877  INFO QSimProvider:137 Added Activityhandler class org.matsim.core.mobsim.qsim.ActivityEngineDefaultImpl
2023-04-12T15:59:37,877  INFO QSimProvider:143 Added DepartureHandler class org.matsim.core.mobsim.qsim.qnetsimengine.VehicularDepartureHandler
2023-04-12T15:59:37,877  INFO QSimProvider:131 Added MobsimEngine class org.matsim.core.mobsim.qsim.qnetsimengine.QNetsimEngineWithThreadpool
2023-04-12T15:59:37,877  INFO QSimProvider:131 Added MobsimEngine class org.matsim.core.mobsim.qsim.DefaultTeleportationEngine
2023-04-12T15:59:37,877  INFO QSimProvider:143 Added DepartureHandler class org.matsim.core.mobsim.qsim.DefaultTeleportationEngine
2023-04-12T15:59:37,877  INFO QSimProvider:149 Added AgentSource class org.matsim.core.mobsim.qsim.agents.PopulationAgentSource
2023-04-12T15:59:37,877  INFO MobsimListenerManager:50 calling addQueueSimulationListener
2023-04-12T15:59:37,877  INFO MobsimListenerManager:54   assigned class org.matsim.core.mobsim.framework.listeners.MobsimListener to interface org.matsim.core.mobsim.qsim.messagequeueengine.MessageQueueEngine
2023-04-12T15:59:37,877  INFO MobsimListenerManager:54   assigned class org.matsim.core.mobsim.framework.listeners.MobsimListener to interface org.matsim.core.mobsim.framework.listeners.MobsimBeforeSimStepListener
2023-04-12T15:59:37,877  INFO MobsimListenerManager:54   assigned class org.matsim.core.mobsim.framework.listeners.MobsimListener to interface org.matsim.core.mobsim.framework.listeners.MobsimListener
2023-04-12T15:59:37,877  INFO QSimProvider:155 Added MobsimListener class org.matsim.core.mobsim.qsim.messagequeueengine.MessageQueueEngine
2023-04-12T15:59:37,878  INFO AbstractQNetsimEngine:428 Assigned 15 nodes and 23 links to QSimEngineRunner #0
2023-04-12T15:59:37,879  INFO AbstractQNetsimEngine:366 SIMULATION (QNetsimEngine) AT 05:58:30 : #links=0 #nodes=1
[...]
2023-04-12T15:59:45,535  INFO GenericPlanStrategyImpl:127 Plan-Strategy finished, 12 plans handled. Strategy: RandomPlanSelector_ReRoute
2023-04-12T15:59:45,535  INFO ControlerListenerManagerImpl:214 [it.10] all ControlerReplanningListeners called.
2023-04-12T15:59:45,535  INFO ControlerListenerManagerImpl:225 calling notifyBeforeMobsim on org.matsim.core.controler.corelisteners.EventsHandlingImpl
2023-04-12T15:59:45,535  INFO EventsManagerImpl:168 resetting Event-Handlers
2023-04-12T15:59:45,535  INFO EventsManagerImpl:175   org.matsim.core.trafficmonitoring.TravelTimeCalculator
2023-04-12T15:59:45,535  INFO EventsManagerImpl:175   org.matsim.analysis.VolumesAnalyzer
2023-04-12T15:59:45,535  INFO EventsManagerImpl:175   org.matsim.core.scoring.ScoringFunctionsForPopulation
2023-04-12T15:59:45,535  INFO EventsManagerImpl:175   org.matsim.analysis.LegHistogram
2023-04-12T15:59:45,535  INFO EventsManagerImpl:175   org.matsim.analysis.CalcLegTimes
2023-04-12T15:59:45,535  INFO EventsManagerImpl:138 adding Event-Handler: org.matsim.core.events.algorithms.EventWriterXML
2023-04-12T15:59:45,535  INFO EventsManagerImpl:144   org.matsim.core.events.algorithms.EventWriter
2023-04-12T15:59:45,535  INFO EventsManagerImpl:144   org.matsim.core.events.handler.BasicEventHandler
2023-04-12T15:59:45,535  INFO EventsManagerImpl:205     > org.matsim.api.core.v01.events.Event
2023-04-12T15:59:45,535  INFO EventsManagerImpl:154 
2023-04-12T15:59:45,536  INFO EventsManagerImpl:138 adding Event-Handler: org.matsim.core.events.algorithms.EventWriterXML
2023-04-12T15:59:45,536  INFO EventsManagerImpl:144   org.matsim.core.events.algorithms.EventWriter
2023-04-12T15:59:45,536  INFO EventsManagerImpl:144   org.matsim.core.events.handler.BasicEventHandler
2023-04-12T15:59:45,536  INFO EventsManagerImpl:205     > org.matsim.api.core.v01.events.Event
2023-04-12T15:59:45,536  INFO EventsManagerImpl:154 
2023-04-12T15:59:45,536  INFO ControlerListenerManagerImpl:225 calling notifyBeforeMobsim on org.matsim.core.controler.corelisteners.PlansDumpingImpl
2023-04-12T15:59:45,536  INFO ControlerListenerManagerImpl:230 calling notifyBeforeMobsim on org.matsim.core.population.VspPlansCleaner
2023-04-12T15:59:45,536  INFO ControlerListenerManagerImpl:233 [it.10] all ControlerBeforeMobsimListeners called.
2023-04-12T15:59:45,536  INFO Counter:70 [PersonPrepareForSim] handled person # 1
2023-04-12T15:59:45,536  INFO Counter:70 [PersonPrepareForSim] handled person # 2
2023-04-12T15:59:45,536  INFO Counter:70 [PersonPrepareForSim] handled person # 4
2023-04-12T15:59:45,537  INFO Counter:70 [PersonPrepareForSim] handled person # 8
2023-04-12T15:59:45,537  INFO Counter:70 [PersonPrepareForSim] handled person # 16
2023-04-12T15:59:45,537  INFO Counter:70 [PersonPrepareForSim] handled person # 32
2023-04-12T15:59:45,537  INFO Counter:70 [PersonPrepareForSim] handled person # 64
2023-04-12T15:59:45,537  INFO Counter:75 [PersonPrepareForSim] handled person # 100
2023-04-12T15:59:45,541  INFO MobsimListenerManager:50 calling addQueueSimulationListener
2023-04-12T15:59:45,542  INFO MobsimListenerManager:54   assigned class org.matsim.core.mobsim.framework.listeners.MobsimListener to interface org.matsim.vis.snapshotwriters.SnapshotWriterManager
2023-04-12T15:59:45,542  INFO MobsimListenerManager:54   assigned class org.matsim.core.mobsim.framework.listeners.MobsimListener to interface org.matsim.core.mobsim.framework.listeners.MobsimListener
2023-04-12T15:59:45,542  INFO MobsimListenerManager:54   assigned class org.matsim.core.mobsim.framework.listeners.MobsimListener to interface org.matsim.core.mobsim.framework.listeners.MobsimInitializedListener
2023-04-12T15:59:45,542  INFO MobsimListenerManager:54   assigned class org.matsim.core.mobsim.framework.listeners.MobsimListener to interface org.matsim.core.mobsim.framework.listeners.MobsimAfterSimStepListener
2023-04-12T15:59:45,542  INFO MobsimListenerManager:54   assigned class org.matsim.core.mobsim.framework.listeners.MobsimListener to interface org.matsim.core.mobsim.framework.listeners.MobsimBeforeCleanupListener
2023-04-12T15:59:45,542  INFO QSimProvider:131 Added MobsimEngine class org.matsim.core.mobsim.qsim.ActivityEngineDefaultImpl
2023-04-12T15:59:45,542  INFO QSimProvider:137 Added Activityhandler class org.matsim.core.mobsim.qsim.ActivityEngineDefaultImpl
2023-04-12T15:59:45,542  INFO QSimProvider:143 Added DepartureHandler class org.matsim.core.mobsim.qsim.qnetsimengine.VehicularDepartureHandler
2023-04-12T15:59:45,542  INFO QSimProvider:131 Added MobsimEngine class org.matsim.core.mobsim.qsim.qnetsimengine.QNetsimEngineWithThreadpool
2023-04-12T15:59:45,542  INFO QSimProvider:131 Added MobsimEngine class org.matsim.core.mobsim.qsim.DefaultTeleportationEngine
2023-04-12T15:59:45,542  INFO QSimProvider:143 Added DepartureHandler class org.matsim.core.mobsim.qsim.DefaultTeleportationEngine
2023-04-12T15:59:45,543  INFO QSimProvider:149 Added AgentSource class org.matsim.core.mobsim.qsim.agents.PopulationAgentSource
2023-04-12T15:59:45,543  INFO MobsimListenerManager:50 calling addQueueSimulationListener
2023-04-12T15:59:45,543  INFO MobsimListenerManager:54   assigned class org.matsim.core.mobsim.framework.listeners.MobsimListener to interface org.matsim.core.mobsim.qsim.messagequeueengine.MessageQueueEngine
2023-04-12T15:59:45,543  INFO MobsimListenerManager:54   assigned class org.matsim.core.mobsim.framework.listeners.MobsimListener to interface org.matsim.core.mobsim.framework.listeners.MobsimBeforeSimStepListener
2023-04-12T15:59:45,543  INFO MobsimListenerManager:54   assigned class org.matsim.core.mobsim.framework.listeners.MobsimListener to interface org.matsim.core.mobsim.framework.listeners.MobsimListener
2023-04-12T15:59:45,543  INFO QSimProvider:155 Added MobsimListener class org.matsim.core.mobsim.qsim.messagequeueengine.MessageQueueEngine
2023-04-12T15:59:45,543  INFO AbstractQNetsimEngine:428 Assigned 15 nodes and 23 links to QSimEngineRunner #0
2023-04-12T15:59:45,543  INFO AbstractQNetsimEngine:366 SIMULATION (QNetsimEngine) AT 05:58:30 : #links=0 #nodes=1
2023-04-12T15:59:45,544  INFO QSim:566 SIMULATION (NEW QSim) AT 05:58:30 : #Veh=100 lost=0 simT=0.0s realT=0s; (s/r): 0.0
2023-04-12T15:59:45,546  INFO AbstractQNetsimEngine:366 SIMULATION (QNetsimEngine) AT 06:00:00 : #links=2 #nodes=1
2023-04-12T15:59:45,546  INFO QSim:566 SIMULATION (NEW QSim) AT 06:00:00 : #Veh=100 lost=0 simT=90.0s realT=0s; (s/r): Infinity
2023-04-12T15:59:45,619  INFO AbstractQNetsimEngine:366 SIMULATION (QNetsimEngine) AT 07:00:00 : #links=1 #nodes=0
2023-04-12T15:59:45,619  INFO QSim:566 SIMULATION (NEW QSim) AT 07:00:00 : #Veh=100 lost=0 simT=3690.0s realT=0s; (s/r): Infinity
2023-04-12T15:59:45,689  INFO AbstractQNetsimEngine:366 SIMULATION (QNetsimEngine) AT 08:00:00 : #links=1 #nodes=0
2023-04-12T15:59:45,689  INFO QSim:566 SIMULATION (NEW QSim) AT 08:00:00 : #Veh=5 lost=0 simT=7290.0s realT=0s; (s/r): Infinity
2023-04-12T15:59:45,758  INFO AbstractQNetsimEngine:366 SIMULATION (QNetsimEngine) AT 09:00:00 : #links=1 #nodes=0
2023-04-12T15:59:45,758  INFO QSim:566 SIMULATION (NEW QSim) AT 09:00:00 : #Veh=4 lost=0 simT=10890.0s realT=0s; (s/r): Infinity
2023-04-12T15:59:45,827  INFO AbstractQNetsimEngine:366 SIMULATION (QNetsimEngine) AT 10:00:00 : #links=1 #nodes=0
2023-04-12T15:59:45,828  INFO QSim:566 SIMULATION (NEW QSim) AT 10:00:00 : #Veh=2 lost=0 simT=14490.0s realT=0s; (s/r): Infinity
2023-04-12T15:59:45,895  INFO AbstractQNetsimEngine:366 SIMULATION (QNetsimEngine) AT 11:00:00 : #links=0 #nodes=0
2023-04-12T15:59:45,895  INFO QSim:566 SIMULATION (NEW QSim) AT 11:00:00 : #Veh=1 lost=0 simT=18090.0s realT=0s; (s/r): Infinity
2023-04-12T15:59:45,962  INFO AbstractQNetsimEngine:366 SIMULATION (QNetsimEngine) AT 12:00:00 : #links=0 #nodes=0
2023-04-12T15:59:45,962  INFO QSim:566 SIMULATION (NEW QSim) AT 12:00:00 : #Veh=1 lost=0 simT=21690.0s realT=0s; (s/r): Infinity
2023-04-12T15:59:46,028  INFO AbstractQNetsimEngine:366 SIMULATION (QNetsimEngine) AT 13:00:00 : #links=1 #nodes=0
2023-04-12T15:59:46,028  INFO QSim:566 SIMULATION (NEW QSim) AT 13:00:00 : #Veh=1 lost=0 simT=25290.0s realT=0s; (s/r): Infinity
2023-04-12T15:59:46,055  INFO AbstractController$9:235 ### ITERATION 10 fires after mobsim event
2023-04-12T15:59:46,056  INFO ControlerListenerManagerImpl:249 calling notifyAfterMobsim on org.matsim.analysis.LegTimesControlerListener
2023-04-12T15:59:46,055  INFO Gbl:192 Thread performance: Thread=class org.matsim.core.events.SimStepParallelEventsManagerImpl$ProcessEventsRunnable0  cpu-time=0.0sec
2023-04-12T15:59:46,056  INFO LegTimesControlerListener:51 [10] average trip (probably: leg) duration is: 1628 seconds = 00:27:08
2023-04-12T15:59:46,056  INFO ControlerListenerManagerImpl:249 calling notifyAfterMobsim on org.matsim.core.events.MobsimScopeEventHandling
2023-04-12T15:59:46,056  INFO ControlerListenerManagerImpl:249 calling notifyAfterMobsim on org.matsim.core.scoring.EventsToActivities$1
2023-04-12T15:59:46,056  INFO ControlerListenerManagerImpl:252 [it.10] all ControlerAfterMobsimListeners called.
2023-04-12T15:59:46,056  INFO AbstractController$4:160 ### ITERATION 10 fires scoring event
2023-04-12T15:59:46,057  INFO ControlerListenerManagerImpl:184 calling notifyScoring on org.matsim.core.scoring.PlansScoringImpl
2023-04-12T15:59:46,057  INFO NewScoreAssignerImpl:58 it: 10 msaStart: null
2023-04-12T15:59:46,057  INFO ControlerListenerManagerImpl:195 [it.10] all ControlerScoringListeners called.
2023-04-12T15:59:46,057  INFO AbstractController$5:168 ### ITERATION 10 fires iteration end event
2023-04-12T15:59:46,057  INFO ControlerListenerManagerImpl:161 calling notifyIterationEnds on org.matsim.core.controler.corelisteners.EventsHandlingImpl
2023-04-12T15:59:46,058  INFO EventsManagerImpl:159 removing Event-Handler: org.matsim.core.events.algorithms.EventWriterXML
2023-04-12T15:59:46,058  INFO EventsManagerImpl:159 removing Event-Handler: org.matsim.core.events.algorithms.EventWriterXML
2023-04-12T15:59:46,058  INFO ControlerListenerManagerImpl:161 calling notifyIterationEnds on org.matsim.core.scoring.PlansScoringImpl
2023-04-12T15:59:46,058  INFO ControlerListenerManagerImpl:168 calling notifyIterationEnds on org.matsim.counts.CountsControlerListener
2023-04-12T15:59:46,060  INFO CountSimComparisonTableWriter:94 Writing CountsSimComparison to ./output/ITERS/it.10/10.countscompare.txt
2023-04-12T15:59:46,061  INFO CountSimComparisonTableWriter:135 Writing 'average weekday traffic volume' to ./output/ITERS/it.10/10.countscompareAWTV.txt
2023-04-12T15:59:46,062  INFO ControlerListenerManagerImpl:168 calling notifyIterationEnds on org.matsim.analysis.ModeStatsControlerListener
2023-04-12T15:59:46,062  INFO ModeStatsControlerListener:145 Mode shares over all 201.0 trips found. MainModeIdentifier: class org.matsim.core.router.RoutingModeMainModeIdentifier
2023-04-12T15:59:46,062  INFO ModeStatsControlerListener:152 -- mode share of mode car = 1.0
2023-04-12T15:59:46,111  INFO ControlerListenerManagerImpl:168 calling notifyIterationEnds on org.matsim.analysis.ScoreStatsControlerListener
2023-04-12T15:59:46,112  INFO ScoreStatsControlerListener:182 -- avg. score of the executed plan of each agent: 65.0866398879971
2023-04-12T15:59:46,112  INFO ScoreStatsControlerListener:183 -- avg. score of the worst plan of each agent: 64.91592263882357
2023-04-12T15:59:46,112  INFO ScoreStatsControlerListener:184 -- avg. of the avg. plan score per agent: 65.01554492675089
2023-04-12T15:59:46,112  INFO ScoreStatsControlerListener:185 -- avg. score of the best plan of each agent: 65.09045249606102
2023-04-12T15:59:46,135  INFO ControlerListenerManagerImpl:168 calling notifyIterationEnds on org.matsim.analysis.IterationTravelStatsControlerListener
2023-04-12T15:59:46,136  INFO TravelDistanceStats:144 -- average leg distance per plan (executed plans only): 44776.119402985074 meters
2023-04-12T15:59:46,136  INFO TravelDistanceStats:145 average leg distance per Person (executed plans only): 90000.0 meters (statistic on all 201 legs which have a finite distance)
2023-04-12T15:59:46,136  INFO TravelDistanceStats:146 -- average trip distance per plan (executed plans only): 44776.119402985074 meters
2023-04-12T15:59:46,136  INFO TravelDistanceStats:147 average trip distance per Person (executed plans only): 90000.0 meters (statistic on all 201 trips which have a finite distance)
2023-04-12T15:59:46,136  INFO TravelDistanceStats:148 (TravelDistanceStats takes an average over all legs where the simulation reports travelled (network) distances
2023-04-12T15:59:46,136  INFO TravelDistanceStats:149 (and teleported legs whose route contains a distance.)
2023-04-12T15:59:46,266  INFO ControlerListenerManagerImpl:168 calling notifyIterationEnds on org.matsim.analysis.LegHistogramListener
2023-04-12T15:59:46,267  INFO LegHistogramListener:73 number of legs:	201	100%
2023-04-12T15:59:46,267  INFO LegHistogramListener:80 number of car legs:	201	100.0%
2023-04-12T15:59:46,328  INFO ControlerListenerManagerImpl:168 calling notifyIterationEnds on org.matsim.analysis.LinkStatsControlerListener
2023-04-12T15:59:46,328  INFO ControlerListenerManagerImpl:172 [it.10] all ControlerIterationEndsListeners called.
2023-04-12T15:59:46,366  INFO AbstractController:182 ### ITERATION 10 ENDS
2023-04-12T15:59:46,366  INFO AbstractController:183 ###################################################
2023-04-12T15:59:46,366  INFO MatsimRuntimeModifications:80 S H U T D O W N   ---   start shutdown.
2023-04-12T15:59:46,367  INFO ControlerListenerManagerImpl:122 calling notifyShutdown on org.matsim.core.controler.corelisteners.EventsHandlingImpl
2023-04-12T15:59:46,367  INFO ControlerListenerManagerImpl:122 calling notifyShutdown on org.matsim.core.controler.corelisteners.DumpDataAtEndImpl
2023-04-12T15:59:46,368  INFO Counter:70 [PopulationWriter] dumped person # 1
2023-04-12T15:59:46,368  INFO Counter:70 [PopulationWriter] dumped person # 2
2023-04-12T15:59:46,368  INFO Counter:70 [PopulationWriter] dumped person # 4
2023-04-12T15:59:46,369  INFO Counter:70 [PopulationWriter] dumped person # 8
2023-04-12T15:59:46,369  INFO Counter:70 [PopulationWriter] dumped person # 16
2023-04-12T15:59:46,370  INFO Counter:70 [PopulationWriter] dumped person # 32
2023-04-12T15:59:46,371  INFO Counter:70 [PopulationWriter] dumped person # 64
2023-04-12T15:59:46,373  INFO PopulationWriter:145 Population written to: ./output/output_plans.xml.gz
2023-04-12T15:59:46,373  INFO Counter:75 [PopulationWriter] dumped person # 100
2023-04-12T15:59:46,374  INFO NetworkWriter:70 Writing network to file: ./output/output_network.xml.gz...
2023-04-12T15:59:46,377  INFO NetworkWriter:73 done.
2023-04-12T15:59:46,382  INFO Config:602 setting context to [file:/C:/Users/snasi/Documents/new_project/matsim-example-project/scenarios/equil/]
2023-04-12T15:59:46,384  INFO Config:602 setting context to [file:/C:/Users/snasi/Documents/new_project/matsim-example-project/scenarios/equil/]
2023-04-12T15:59:46,385  INFO Config:602 setting context to [file:/C:/Users/snasi/Documents/new_project/matsim-example-project/scenarios/equil/]
2023-04-12T15:59:46,386  INFO Config:602 setting context to [file:/C:/Users/snasi/Documents/new_project/matsim-example-project/scenarios/equil/]
2023-04-12T15:59:46,387  INFO Config:602 setting context to [file:/C:/Users/snasi/Documents/new_project/matsim-example-project/scenarios/equil/]
2023-04-12T15:59:46,390  INFO Config:602 setting context to [file:/C:/Users/snasi/Documents/new_project/matsim-example-project/scenarios/equil/]
2023-04-12T15:59:46,391  INFO Config:602 setting context to [file:/C:/Users/snasi/Documents/new_project/matsim-example-project/scenarios/equil/]
2023-04-12T15:59:46,392  INFO Config:602 setting context to [file:/C:/Users/snasi/Documents/new_project/matsim-example-project/scenarios/equil/]
2023-04-12T15:59:46,392  INFO Config:602 setting context to [file:/C:/Users/snasi/Documents/new_project/matsim-example-project/scenarios/equil/]
2023-04-12T15:59:46,393  INFO Config:602 setting context to [file:/C:/Users/snasi/Documents/new_project/matsim-example-project/scenarios/equil/]
2023-04-12T15:59:46,394  INFO Config:602 setting context to [file:/C:/Users/snasi/Documents/new_project/matsim-example-project/scenarios/equil/]
2023-04-12T15:59:46,394  INFO Config:602 setting context to [file:/C:/Users/snasi/Documents/new_project/matsim-example-project/scenarios/equil/]
2023-04-12T15:59:46,395  INFO Config:602 setting context to [file:/C:/Users/snasi/Documents/new_project/matsim-example-project/scenarios/equil/]
2023-04-12T15:59:46,395  INFO Config:602 setting context to [file:/C:/Users/snasi/Documents/new_project/matsim-example-project/scenarios/equil/]
2023-04-12T15:59:46,398  INFO Config:602 setting context to [file:/C:/Users/snasi/Documents/new_project/matsim-example-project/scenarios/equil/]
2023-04-12T15:59:46,399  INFO Config:602 setting context to [file:/C:/Users/snasi/Documents/new_project/matsim-example-project/scenarios/equil/]
2023-04-12T15:59:46,400  INFO Config:602 setting context to [file:/C:/Users/snasi/Documents/new_project/matsim-example-project/scenarios/equil/]
2023-04-12T15:59:46,401  INFO Config:602 setting context to [file:/C:/Users/snasi/Documents/new_project/matsim-example-project/scenarios/equil/]
2023-04-12T15:59:46,405  INFO Config:602 setting context to [file:/C:/Users/snasi/Documents/new_project/matsim-example-project/scenarios/equil/]
2023-04-12T15:59:46,406  INFO Config:602 setting context to [file:/C:/Users/snasi/Documents/new_project/matsim-example-project/scenarios/equil/]
2023-04-12T15:59:46,408  INFO Config:602 setting context to [file:/C:/Users/snasi/Documents/new_project/matsim-example-project/scenarios/equil/]
2023-04-12T15:59:46,409  INFO Config:602 setting context to [file:/C:/Users/snasi/Documents/new_project/matsim-example-project/scenarios/equil/]
2023-04-12T15:59:46,409  INFO Config:602 setting context to [file:/C:/Users/snasi/Documents/new_project/matsim-example-project/scenarios/equil/]
2023-04-12T15:59:46,411  INFO Config:602 setting context to [file:/C:/Users/snasi/Documents/new_project/matsim-example-project/scenarios/equil/]
2023-04-12T15:59:46,411  INFO Config:602 setting context to [file:/C:/Users/snasi/Documents/new_project/matsim-example-project/scenarios/equil/]
2023-04-12T15:59:46,412  INFO Config:602 setting context to [file:/C:/Users/snasi/Documents/new_project/matsim-example-project/scenarios/equil/]
2023-04-12T15:59:46,415  INFO MatsimVehicleWriter:55 about to write vehicles to: ./output/output_vehicles.xml.gz
2023-04-12T15:59:46,415  INFO VehicleWriterV2:64 about to write vehicles to: ./output/output_vehicles.xml.gz
2023-04-12T15:59:46,418  INFO MatsimVehicleWriter:55 about to write vehicles to: ./output/output_allVehicles.xml.gz
2023-04-12T15:59:46,418  INFO VehicleWriterV2:64 about to write vehicles to: ./output/output_allVehicles.xml.gz
2023-04-12T15:59:46,420  INFO HouseholdsWriterV10:67 about to write  households to: ./output/output_households.xml.gz
2023-04-12T15:59:46,420  INFO Counter:75 [HouseholdsWriter] wrote household # 0
2023-04-12T15:59:46,430  INFO ControlerListenerManagerImpl:127 calling notifyShutdown on org.matsim.analysis.ScoreStatsControlerListener
2023-04-12T15:59:46,430  INFO ControlerListenerManagerImpl:127 calling notifyShutdown on org.matsim.analysis.IterationTravelStatsControlerListener
2023-04-12T15:59:46,430  INFO IterationTravelStatsControlerListener:109 Writing all Person and Attributes to personscsv
2023-04-12T15:59:46,433  INFO IterationTravelStatsControlerListener:153 ...done
2023-04-12T15:59:46,433  INFO ControlerListenerManagerImpl:130 all ControlerShutdownListeners called.
2023-04-12T15:59:46,433  INFO MatsimRuntimeModifications:103 S H U T D O W N   ---   shutdown completed.
2023-04-12T15:59:46,433  INFO OutputDirectoryLogging:171 closing the logfile, i.e. messages sent to the logger after this message are not written to the logfile.
